MODEL 1
REMARK VINA RESULT:      -4.3      0.000      0.000
REMARK SMILES NCCc1c[nH]c2c(F)cccc12
REMARK SMILES IDX 3 1 4 4 11 5 12 6 10 7 13 9 8 11 7 13 9 14 6 15 5 16 2 19
REMARK SMILES IDX 1 22
REMARK H PARENT 3 2 3 3 11 8 12 10 10 12 6 17 5 18 2 20 2 21 1 23 1 24
REMARK Flexibility Score: inf
ROOT
ATOM      1  C   UNL     1      -8.327  18.825   6.994  1.00  0.00    -0.013 C 
ATOM      2  H   UNL     1      -8.068  19.364   7.914  1.00  0.00     0.033 H 
ATOM      3  H   UNL     1      -8.175  19.541   6.176  1.00  0.00     0.033 H 
ENDROOT
BRANCH   1   4
ATOM      4  C   UNL     1      -9.771  18.432   7.063  1.00  0.00    -0.021 A 
ATOM      5  C   UNL     1     -11.006  16.887  10.348  1.00  0.00    -0.059 A 
ATOM      6  C   UNL     1     -10.061  17.453   9.480  1.00  0.00    -0.052 A 
ATOM      7  C   UNL     1     -12.325  16.706   9.939  1.00  0.00    -0.024 A 
ATOM      8  H   UNL     1     -10.704  16.587  11.348  1.00  0.00     0.062 H 
ATOM      9  C   UNL     1     -10.449  17.842   8.180  1.00  0.00     0.006 A 
ATOM     10  H   UNL     1      -9.035  17.587   9.811  1.00  0.00     0.063 H 
ATOM     11  C   UNL     1     -12.721  17.085   8.660  1.00  0.00     0.147 A 
ATOM     12  H   UNL     1     -13.055  16.267  10.612  1.00  0.00     0.065 H 
ATOM     13  C   UNL     1     -11.777  17.647   7.801  1.00  0.00     0.082 A 
ATOM     14  F   UNL     1     -13.990  16.909   8.268  1.00  0.00    -0.205 F 
ATOM     15  N   UNL     1     -11.907  18.095   6.510  1.00  0.00    -0.359 N 
ATOM     16  C   UNL     1     -10.708  18.577   6.058  1.00  0.00     0.005 A 
ATOM     17  H   UNL     1     -12.767  18.064   5.980  1.00  0.00     0.166 HD
ATOM     18  H   UNL     1     -10.616  18.968   5.054  1.00  0.00     0.082 H 
ENDBRANCH   1   4
BRANCH   1  19
ATOM     19  C   UNL     1      -7.366  17.637   6.840  1.00  0.00    -0.004 C 
ATOM     20  H   UNL     1      -6.623  17.681   7.643  1.00  0.00     0.043 H 
ATOM     21  H   UNL     1      -7.906  16.689   6.946  1.00  0.00     0.043 H 
BRANCH  19  22
ATOM     22  N   UNL     1      -6.650  17.635   5.562  1.00  0.00    -0.330 NA
ATOM     23  H   UNL     1      -5.949  18.373   5.557  1.00  0.00     0.118 HD
ATOM     24  H   UNL     1      -6.151  16.753   5.454  1.00  0.00     0.118 HD
ENDBRANCH  19  22
ENDBRANCH   1  19
TORSDOF 3
ENDMDL
MODEL 2
REMARK VINA RESULT:      -4.2      1.505      2.386
REMARK SMILES NCCc1c[nH]c2c(F)cccc12
REMARK SMILES IDX 3 1 4 4 11 5 12 6 10 7 13 9 8 11 7 13 9 14 6 15 5 16 2 19
REMARK SMILES IDX 1 22
REMARK H PARENT 3 2 3 3 11 8 12 10 10 12 6 17 5 18 2 20 2 21 1 23 1 24
REMARK Flexibility Score: inf
ROOT
ATOM      1  C   UNL     1      -8.782  18.474   7.218  1.00  0.00    -0.013 C 
ATOM      2  H   UNL     1      -8.601  19.534   7.439  1.00  0.00     0.033 H 
ATOM      3  H   UNL     1      -9.198  18.447   6.203  1.00  0.00     0.033 H 
ENDROOT
BRANCH   1   4
ATOM      4  C   UNL     1      -9.791  17.950   8.194  1.00  0.00    -0.021 A 
ATOM      5  C   UNL     1     -13.382  17.504   6.924  1.00  0.00    -0.059 A 
ATOM      6  C   UNL     1     -12.026  17.846   6.822  1.00  0.00    -0.052 A 
ATOM      7  C   UNL     1     -13.903  17.024   8.123  1.00  0.00    -0.024 A 
ATOM      8  H   UNL     1     -14.030  17.615   6.059  1.00  0.00     0.062 H 
ATOM      9  C   UNL     1     -11.181  17.704   7.945  1.00  0.00     0.006 A 
ATOM     10  H   UNL     1     -11.632  18.221   5.882  1.00  0.00     0.063 H 
ATOM     11  C   UNL     1     -13.082  16.879   9.238  1.00  0.00     0.147 A 
ATOM     12  H   UNL     1     -14.953  16.760   8.200  1.00  0.00     0.065 H 
ATOM     13  C   UNL     1     -11.734  17.221   9.131  1.00  0.00     0.082 A 
ATOM     14  F   UNL     1     -13.586  16.419  10.390  1.00  0.00    -0.205 F 
ATOM     15  N   UNL     1     -10.730  17.176  10.065  1.00  0.00    -0.359 N 
ATOM     16  C   UNL     1      -9.555  17.605   9.511  1.00  0.00     0.005 A 
ATOM     17  H   UNL     1     -10.855  16.872  11.021  1.00  0.00     0.166 HD
ATOM     18  H   UNL     1      -8.649  17.644  10.102  1.00  0.00     0.082 H 
ENDBRANCH   1   4
BRANCH   1  19
ATOM     19  C   UNL     1      -7.438  17.733   7.255  1.00  0.00    -0.004 C 
ATOM     20  H   UNL     1      -6.739  18.305   7.875  1.00  0.00     0.043 H 
ATOM     21  H   UNL     1      -7.555  16.747   7.721  1.00  0.00     0.043 H 
BRANCH  19  22
ATOM     22  N   UNL     1      -6.834  17.564   5.932  1.00  0.00    -0.330 NA
ATOM     23  H   UNL     1      -7.546  17.661   5.211  1.00  0.00     0.118 HD
ATOM     24  H   UNL     1      -6.151  18.304   5.774  1.00  0.00     0.118 HD
ENDBRANCH  19  22
ENDBRANCH   1  19
TORSDOF 3
ENDMDL
MODEL 3
REMARK VINA RESULT:      -4.1      1.969      2.522
REMARK SMILES NCCc1c[nH]c2c(F)cccc12
REMARK SMILES IDX 3 1 4 4 11 5 12 6 10 7 13 9 8 11 7 13 9 14 6 15 5 16 2 19
REMARK SMILES IDX 1 22
REMARK H PARENT 3 2 3 3 11 8 12 10 10 12 6 17 5 18 2 20 2 21 1 23 1 24
REMARK Flexibility Score: inf
ROOT
ATOM      1  C   UNL     1      -9.359  18.691   8.725  1.00  0.00    -0.013 C 
ATOM      2  H   UNL     1      -9.934  19.238   9.485  1.00  0.00     0.033 H 
ATOM      3  H   UNL     1      -8.547  19.365   8.424  1.00  0.00     0.033 H 
ENDROOT
BRANCH   1   4
ATOM      4  C   UNL     1     -10.253  18.419   7.555  1.00  0.00    -0.021 A 
ATOM      5  C   UNL     1     -13.693  16.896   8.303  1.00  0.00    -0.059 A 
ATOM      6  C   UNL     1     -12.425  17.403   8.623  1.00  0.00    -0.052 A 
ATOM      7  C   UNL     1     -14.119  16.837   6.978  1.00  0.00    -0.024 A 
ATOM      8  H   UNL     1     -14.346  16.545   9.097  1.00  0.00     0.062 H 
ATOM      9  C   UNL     1     -11.572  17.859   7.593  1.00  0.00     0.006 A 
ATOM     10  H   UNL     1     -12.104  17.442   9.659  1.00  0.00     0.063 H 
ATOM     11  C   UNL     1     -13.288  17.282   5.953  1.00  0.00     0.147 A 
ATOM     12  H   UNL     1     -15.100  16.443   6.732  1.00  0.00     0.065 H 
ATOM     13  C   UNL     1     -12.029  17.786   6.277  1.00  0.00     0.082 A 
ATOM     14  F   UNL     1     -13.699  17.223   4.680  1.00  0.00    -0.205 F 
ATOM     15  N   UNL     1     -11.034  18.277   5.469  1.00  0.00    -0.359 N 
ATOM     16  C   UNL     1      -9.964  18.668   6.227  1.00  0.00     0.005 A 
ATOM     17  H   UNL     1     -11.095  18.332   4.461  1.00  0.00     0.166 HD
ATOM     18  H   UNL     1      -9.078  19.077   5.760  1.00  0.00     0.082 H 
ENDBRANCH   1   4
BRANCH   1  19
ATOM     19  C   UNL     1      -8.779  17.425   9.373  1.00  0.00    -0.004 C 
ATOM     20  H   UNL     1      -8.840  17.529  10.461  1.00  0.00     0.043 H 
ATOM     21  H   UNL     1      -9.372  16.546   9.095  1.00  0.00     0.043 H 
BRANCH  19  22
ATOM     22  N   UNL     1      -7.378  17.185   9.020  1.00  0.00    -0.330 NA
ATOM     23  H   UNL     1      -7.299  16.327   8.479  1.00  0.00     0.118 HD
ATOM     24  H   UNL     1      -7.043  17.941   8.425  1.00  0.00     0.118 HD
ENDBRANCH  19  22
ENDBRANCH   1  19
TORSDOF 3
ENDMDL
