./dock_file/liganddock202312151433/7Fluorotryptamine_PROamberH_GPCR5A_AF_selefeatureTOP200_color/7Fluorotryptamine_PROamberH_GPCR5A_AF_selefeatureTOP200_color_out_15.pdbqt
 OpenBabel12152314333D

 24 25  0  0  0  0  0  0  0  0999 V2000
   -3.5170    9.5030  -17.5260 C   0  0  0  0  0  0  0  0  0  0  0  0
   -3.5260   10.3810  -16.8680 H   0  0  0  0  0  0  0  0  0  0  0  0
   -4.3090    9.6780  -18.2670 H   0  0  0  0  0  0  0  0  0  0  0  0
   -3.8440    8.2910  -16.7100 C   0  0  0  0  0  0  0  0  0  0  0  0
   -6.2220    8.7750  -13.7400 C   0  0  0  0  0  0  0  0  0  0  0  0
   -5.4730    9.1810  -14.8540 C   0  0  0  0  0  0  0  0  0  0  0  0
   -6.2140    7.4450  -13.3270 C   0  0  0  0  0  0  0  0  0  0  0  0
   -6.8120    9.5080  -13.1950 H   0  0  0  0  0  0  0  0  0  0  0  0
   -4.7030    8.2330  -15.5640 C   0  0  0  0  0  0  0  0  0  0  0  0
   -5.4850   10.2210  -15.1640 H   0  0  0  0  0  0  0  0  0  0  0  0
   -5.4600    6.5010  -14.0170 C   0  0  0  0  0  0  0  0  0  0  0  0
   -6.7940    7.1340  -12.4640 H   0  0  0  0  0  0  0  0  0  0  0  0
   -4.7180    6.9090  -15.1240 C   0  0  0  0  0  0  0  0  0  0  0  0
   -5.4530    5.2220  -13.6170 F   0  0  0  0  0  0  0  0  0  0  0  0
   -3.9020    6.1890  -15.9610 N   0  0  0  0  0  0  0  0  0  0  0  0
   -3.3770    7.0080  -16.9240 C   0  0  0  0  0  0  0  0  0  0  0  0
   -3.7210    5.1990  -15.8670 H   0  0  0  0  0  0  0  0  0  0  0  0
   -2.7030    6.6160  -17.6730 H   0  0  0  0  0  0  0  0  0  0  0  0
   -2.1510    9.4330  -18.2240 C   0  0  0  0  0  0  0  0  0  0  0  0
   -2.0240    8.4300  -18.6460 H   0  0  0  0  0  0  0  0  0  0  0  0
   -2.1070   10.1450  -19.0570 H   0  0  0  0  0  0  0  0  0  0  0  0
   -1.0270    9.6890  -17.3200 N   0  0  0  0  0  0  0  0  0  0  0  0
   -0.5510    8.8160  -17.1040 H   0  0  0  0  0  0  0  0  0  0  0  0
   -0.3470   10.2880  -17.7850 H   0  0  0  0  0  0  0  0  0  0  0  0
  1  2  1  0  0  0  0
  1  4  1  0  0  0  0
  3  1  1  0  0  0  0
  4  9  1  0  0  0  0
  5  7  1  0  0  0  0
  5  8  1  0  0  0  0
  6  5  2  0  0  0  0
  7 12  1  0  0  0  0
  9 13  2  0  0  0  0
  9  6  1  0  0  0  0
 10  6  1  0  0  0  0
 11 14  1  0  0  0  0
 11  7  2  0  0  0  0
 13 11  1  0  0  0  0
 15 17  1  0  0  0  0
 15 13  1  0  0  0  0
 16  4  2  0  0  0  0
 16 15  1  0  0  0  0
 18 16  1  0  0  0  0
 19  1  1  0  0  0  0
 19 22  1  0  0  0  0
 20 19  1  0  0  0  0
 21 19  1  0  0  0  0
 22 23  1  0  0  0  0
 24 22  1  0  0  0  0
M  END
>  <MODEL>
1

>  <REMARK>
 VINA RESULT:      -4.5      0.000      0.000
 SMILES NCCc1c[nH]c2c(F)cccc12
 SMILES IDX 3 1 4 4 11 5 12 6 10 7 13 9 8 11 7 13 9 14 6 15 5 16 2 19
 SMILES IDX 1 22
 H PARENT 3 2 3 3 11 8 12 10 10 12 6 17 5 18 2 20 2 21 1 23 1 24
 Flexibility Score: inf

>  <TORSDO>
F 3

$$$$
./dock_file/liganddock202312151433/7Fluorotryptamine_PROamberH_GPCR5A_AF_selefeatureTOP200_color/7Fluorotryptamine_PROamberH_GPCR5A_AF_selefeatureTOP200_color_out_15.pdbqt
 OpenBabel12152314333D

 24 25  0  0  0  0  0  0  0  0999 V2000
   -5.2030    6.0030  -14.3350 C   0  0  0  0  0  0  0  0  0  0  0  0
   -5.9160    5.1690  -14.3570 H   0  0  0  0  0  0  0  0  0  0  0  0
   -4.4800    5.7560  -13.5470 H   0  0  0  0  0  0  0  0  0  0  0  0
   -5.9430    7.2530  -13.9710 C   0  0  0  0  0  0  0  0  0  0  0  0
   -9.7740    7.1150  -14.1010 C   0  0  0  0  0  0  0  0  0  0  0  0
   -8.4740    6.6050  -14.2260 C   0  0  0  0  0  0  0  0  0  0  0  0
   -9.9820    8.4330  -13.7030 C   0  0  0  0  0  0  0  0  0  0  0  0
  -10.6250    6.4740  -14.3170 H   0  0  0  0  0  0  0  0  0  0  0  0
   -7.3650    7.4340  -13.9470 C   0  0  0  0  0  0  0  0  0  0  0  0
   -8.3240    5.5760  -14.5390 H   0  0  0  0  0  0  0  0  0  0  0  0
   -8.8990    9.2620  -13.4250 C   0  0  0  0  0  0  0  0  0  0  0  0
  -10.9890    8.8270  -13.6070 H   0  0  0  0  0  0  0  0  0  0  0  0
   -7.6080    8.7490  -13.5510 C   0  0  0  0  0  0  0  0  0  0  0  0
   -9.1020   10.5300  -13.0440 F   0  0  0  0  0  0  0  0  0  0  0  0
   -6.3910    9.3480  -13.3440 N   0  0  0  0  0  0  0  0  0  0  0  0
   -5.3820    8.4560  -13.5860 C   0  0  0  0  0  0  0  0  0  0  0  0
   -6.2710   10.3110  -13.0590 H   0  0  0  0  0  0  0  0  0  0  0  0
   -4.3470    8.7530  -13.4800 H   0  0  0  0  0  0  0  0  0  0  0  0
   -4.4950    6.0740  -15.6950 C   0  0  0  0  0  0  0  0  0  0  0  0
   -4.3890    5.0570  -16.0890 H   0  0  0  0  0  0  0  0  0  0  0  0
   -5.0980    6.6410  -16.4140 H   0  0  0  0  0  0  0  0  0  0  0  0
   -3.1580    6.6690  -15.6210 N   0  0  0  0  0  0  0  0  0  0  0  0
   -2.7900    6.8100  -16.5590 H   0  0  0  0  0  0  0  0  0  0  0  0
   -3.2200    7.5890  -15.1870 H   0  0  0  0  0  0  0  0  0  0  0  0
  1  4  1  0  0  0  0
  1  3  1  0  0  0  0
  2  1  1  0  0  0  0
  4  9  1  0  0  0  0
  4 16  2  0  0  0  0
  5  7  1  0  0  0  0
  6  5  2  0  0  0  0
  6  9  1  0  0  0  0
  7 12  1  0  0  0  0
  7 11  2  0  0  0  0
  8  5  1  0  0  0  0
  9 13  2  0  0  0  0
 10  6  1  0  0  0  0
 11 14  1  0  0  0  0
 13 11  1  0  0  0  0
 13 15  1  0  0  0  0
 15 17  1  0  0  0  0
 16 18  1  0  0  0  0
 16 15  1  0  0  0  0
 19 22  1  0  0  0  0
 19  1  1  0  0  0  0
 20 19  1  0  0  0  0
 21 19  1  0  0  0  0
 22 24  1  0  0  0  0
 23 22  1  0  0  0  0
M  END
>  <REMARK>
 VINA RESULT:      -4.4      3.012      4.397
 SMILES NCCc1c[nH]c2c(F)cccc12
 SMILES IDX 3 1 4 4 11 5 12 6 10 7 13 9 8 11 7 13 9 14 6 15 5 16 2 19
 SMILES IDX 1 22
 H PARENT 3 2 3 3 11 8 12 10 10 12 6 17 5 18 2 20 2 21 1 23 1 24
 Flexibility Score: inf

>  <TORSDO>
F 3

$$$$
./dock_file/liganddock202312151433/7Fluorotryptamine_PROamberH_GPCR5A_AF_selefeatureTOP200_color/7Fluorotryptamine_PROamberH_GPCR5A_AF_selefeatureTOP200_color_out_15.pdbqt
 OpenBabel12152314333D

 24 25  0  0  0  0  0  0  0  0999 V2000
   -5.4920    5.9070  -14.1210 C   0  0  0  0  0  0  0  0  0  0  0  0
   -5.9920    4.9320  -14.1880 H   0  0  0  0  0  0  0  0  0  0  0  0
   -4.8980    5.8740  -13.1980 H   0  0  0  0  0  0  0  0  0  0  0  0
   -6.5380    6.9730  -14.0140 C   0  0  0  0  0  0  0  0  0  0  0  0
   -5.3180   10.5660  -13.4500 C   0  0  0  0  0  0  0  0  0  0  0  0
   -5.1730    9.1840  -13.6410 C   0  0  0  0  0  0  0  0  0  0  0  0
   -6.5830   11.1480  -13.4230 C   0  0  0  0  0  0  0  0  0  0  0  0
   -4.4350   11.1850  -13.3220 H   0  0  0  0  0  0  0  0  0  0  0  0
   -6.3190    8.3750  -13.8060 C   0  0  0  0  0  0  0  0  0  0  0  0
   -4.1820    8.7420  -13.6590 H   0  0  0  0  0  0  0  0  0  0  0  0
   -7.7210   10.3620  -13.5840 C   0  0  0  0  0  0  0  0  0  0  0  0
   -6.6940   12.2170  -13.2740 H   0  0  0  0  0  0  0  0  0  0  0  0
   -7.5710    8.9890  -13.7730 C   0  0  0  0  0  0  0  0  0  0  0  0
   -8.9370   10.9240  -13.5560 F   0  0  0  0  0  0  0  0  0  0  0  0
   -8.5150    8.0080  -13.9500 N   0  0  0  0  0  0  0  0  0  0  0  0
   -7.9050    6.7930  -14.1040 C   0  0  0  0  0  0  0  0  0  0  0  0
   -9.5120    8.1730  -13.9590 H   0  0  0  0  0  0  0  0  0  0  0  0
   -8.4930    5.8960  -14.2490 H   0  0  0  0  0  0  0  0  0  0  0  0
   -4.5670    6.0630  -15.3360 C   0  0  0  0  0  0  0  0  0  0  0  0
   -4.4350    5.0820  -15.8050 H   0  0  0  0  0  0  0  0  0  0  0  0
   -5.0220    6.7230  -16.0840 H   0  0  0  0  0  0  0  0  0  0  0  0
   -3.2410    6.5800  -14.9910 N   0  0  0  0  0  0  0  0  0  0  0  0
   -3.3300    7.3600  -14.3430 H   0  0  0  0  0  0  0  0  0  0  0  0
   -2.7090    5.8560  -14.5100 H   0  0  0  0  0  0  0  0  0  0  0  0
  1  4  1  0  0  0  0
  1  3  1  0  0  0  0
  2  1  1  0  0  0  0
  4  9  1  0  0  0  0
  5  7  1  0  0  0  0
  5  8  1  0  0  0  0
  6  5  2  0  0  0  0
  7 12  1  0  0  0  0
  9 13  2  0  0  0  0
  9  6  1  0  0  0  0
 10  6  1  0  0  0  0
 11 14  1  0  0  0  0
 11  7  2  0  0  0  0
 13 11  1  0  0  0  0
 15 13  1  0  0  0  0
 16  4  2  0  0  0  0
 16 15  1  0  0  0  0
 17 15  1  0  0  0  0
 18 16  1  0  0  0  0
 19 22  1  0  0  0  0
 19  1  1  0  0  0  0
 20 19  1  0  0  0  0
 21 19  1  0  0  0  0
 22 24  1  0  0  0  0
 22 23  1  0  0  0  0
M  END
>  <REMARK>
 VINA RESULT:      -4.4      3.164      4.401
 SMILES NCCc1c[nH]c2c(F)cccc12
 SMILES IDX 3 1 4 4 11 5 12 6 10 7 13 9 8 11 7 13 9 14 6 15 5 16 2 19
 SMILES IDX 1 22
 H PARENT 3 2 3 3 11 8 12 10 10 12 6 17 5 18 2 20 2 21 1 23 1 24
 Flexibility Score: inf

>  <TORSDO>
F 3

$$$$
