./dock_file/liganddock202312151433/7Fluorotryptamine_PROamberH_GPCR5A_AF_selefeatureTOP200_color/7Fluorotryptamine_PROamberH_GPCR5A_AF_selefeatureTOP200_color_out_20.pdbqt
 OpenBabel12152314333D

 24 25  0  0  0  0  0  0  0  0999 V2000
  -25.0220   10.6870   12.3230 C   0  0  0  0  0  0  0  0  0  0  0  0
  -24.3140    9.9930   11.8520 H   0  0  0  0  0  0  0  0  0  0  0  0
  -25.6270   10.0770   13.0060 H   0  0  0  0  0  0  0  0  0  0  0  0
  -25.8960   11.2730   11.2570 C   0  0  0  0  0  0  0  0  0  0  0  0
  -26.9130    8.9660    8.3680 C   0  0  0  0  0  0  0  0  0  0  0  0
  -26.2730    9.2980    9.5700 C   0  0  0  0  0  0  0  0  0  0  0  0
  -27.6730    9.9120    7.6840 C   0  0  0  0  0  0  0  0  0  0  0  0
  -26.8140    7.9600    7.9680 H   0  0  0  0  0  0  0  0  0  0  0  0
  -26.3980   10.6040   10.0930 C   0  0  0  0  0  0  0  0  0  0  0  0
  -25.6820    8.5520   10.0930 H   0  0  0  0  0  0  0  0  0  0  0  0
  -27.8040   11.2030    8.1880 C   0  0  0  0  0  0  0  0  0  0  0  0
  -28.1670    9.6530    6.7530 H   0  0  0  0  0  0  0  0  0  0  0  0
  -27.1650   11.5280    9.3840 C   0  0  0  0  0  0  0  0  0  0  0  0
  -28.5340   12.1120    7.5280 F   0  0  0  0  0  0  0  0  0  0  0  0
  -27.1330   12.7110   10.0800 N   0  0  0  0  0  0  0  0  0  0  0  0
  -26.3790   12.5670   11.2130 C   0  0  0  0  0  0  0  0  0  0  0  0
  -27.5990   13.5580    9.7860 H   0  0  0  0  0  0  0  0  0  0  0  0
  -26.2340   13.4010   11.8880 H   0  0  0  0  0  0  0  0  0  0  0  0
  -24.2240   11.7310   13.1170 C   0  0  0  0  0  0  0  0  0  0  0  0
  -23.8150   12.4670   12.4160 H   0  0  0  0  0  0  0  0  0  0  0  0
  -24.8790   12.2700   13.8110 H   0  0  0  0  0  0  0  0  0  0  0  0
  -23.1050   11.1560   13.8680 N   0  0  0  0  0  0  0  0  0  0  0  0
  -22.3460   11.8310   13.9310 H   0  0  0  0  0  0  0  0  0  0  0  0
  -23.4030   10.9570   14.8210 H   0  0  0  0  0  0  0  0  0  0  0  0
  1  3  1  0  0  0  0
  1 19  1  0  0  0  0
  2  1  1  0  0  0  0
  4  1  1  0  0  0  0
  5  6  2  0  0  0  0
  6  9  1  0  0  0  0
  6 10  1  0  0  0  0
  7 11  2  0  0  0  0
  7  5  1  0  0  0  0
  8  5  1  0  0  0  0
  9  4  1  0  0  0  0
 11 13  1  0  0  0  0
 12  7  1  0  0  0  0
 13 15  1  0  0  0  0
 13  9  2  0  0  0  0
 14 11  1  0  0  0  0
 15 16  1  0  0  0  0
 16  4  2  0  0  0  0
 16 18  1  0  0  0  0
 17 15  1  0  0  0  0
 19 21  1  0  0  0  0
 19 22  1  0  0  0  0
 20 19  1  0  0  0  0
 22 23  1  0  0  0  0
 22 24  1  0  0  0  0
M  END
>  <MODEL>
1

>  <REMARK>
 VINA RESULT:      -4.7      0.000      0.000
 SMILES NCCc1c[nH]c2c(F)cccc12
 SMILES IDX 3 1 4 4 11 5 12 6 10 7 13 9 8 11 7 13 9 14 6 15 5 16 2 19
 SMILES IDX 1 22
 H PARENT 3 2 3 3 11 8 12 10 10 12 6 17 5 18 2 20 2 21 1 23 1 24
 Flexibility Score: inf

>  <TORSDO>
F 3

$$$$
./dock_file/liganddock202312151433/7Fluorotryptamine_PROamberH_GPCR5A_AF_selefeatureTOP200_color/7Fluorotryptamine_PROamberH_GPCR5A_AF_selefeatureTOP200_color_out_20.pdbqt
 OpenBabel12152314333D

 24 25  0  0  0  0  0  0  0  0999 V2000
  -26.2750   12.3760   11.9130 C   0  0  0  0  0  0  0  0  0  0  0  0
  -26.7210   12.0980   12.8770 H   0  0  0  0  0  0  0  0  0  0  0  0
  -26.8970   13.1910   11.5210 H   0  0  0  0  0  0  0  0  0  0  0  0
  -26.3460   11.1950   10.9960 C   0  0  0  0  0  0  0  0  0  0  0  0
  -28.2850   11.6460    7.7170 C   0  0  0  0  0  0  0  0  0  0  0  0
  -27.7590   12.0470    8.9540 C   0  0  0  0  0  0  0  0  0  0  0  0
  -28.0750   10.3540    7.2430 C   0  0  0  0  0  0  0  0  0  0  0  0
  -28.8620   12.3520    7.1260 H   0  0  0  0  0  0  0  0  0  0  0  0
  -27.0100   11.1320    9.7260 C   0  0  0  0  0  0  0  0  0  0  0  0
  -27.9320   13.0570    9.3140 H   0  0  0  0  0  0  0  0  0  0  0  0
  -27.3380    9.4420    7.9940 C   0  0  0  0  0  0  0  0  0  0  0  0
  -28.4830   10.0450    6.2860 H   0  0  0  0  0  0  0  0  0  0  0  0
  -26.8180    9.8460    9.2230 C   0  0  0  0  0  0  0  0  0  0  0  0
  -27.1380    8.1990    7.5360 F   0  0  0  0  0  0  0  0  0  0  0  0
  -26.0720    9.1510   10.1430 N   0  0  0  0  0  0  0  0  0  0  0  0
  -25.7760    9.9550   11.2090 C   0  0  0  0  0  0  0  0  0  0  0  0
  -25.7930    8.1850   10.0370 H   0  0  0  0  0  0  0  0  0  0  0  0
  -25.1980    9.5750   12.0410 H   0  0  0  0  0  0  0  0  0  0  0  0
  -24.8470   12.8810   12.1670 C   0  0  0  0  0  0  0  0  0  0  0  0
  -24.2310   12.6440   11.2930 H   0  0  0  0  0  0  0  0  0  0  0  0
  -24.8390   13.9710   12.2850 H   0  0  0  0  0  0  0  0  0  0  0  0
  -24.2180   12.2710   13.3410 N   0  0  0  0  0  0  0  0  0  0  0  0
  -23.8590   11.3490   13.1020 H   0  0  0  0  0  0  0  0  0  0  0  0
  -23.4190   12.8340   13.6300 H   0  0  0  0  0  0  0  0  0  0  0  0
  1 19  1  0  0  0  0
  1  2  1  0  0  0  0
  3  1  1  0  0  0  0
  4 16  2  0  0  0  0
  4  1  1  0  0  0  0
  5  6  1  0  0  0  0
  6 10  1  0  0  0  0
  6  9  2  0  0  0  0
  7  5  2  0  0  0  0
  7 11  1  0  0  0  0
  8  5  1  0  0  0  0
  9  4  1  0  0  0  0
 11 13  2  0  0  0  0
 12  7  1  0  0  0  0
 13  9  1  0  0  0  0
 13 15  1  0  0  0  0
 14 11  1  0  0  0  0
 15 16  1  0  0  0  0
 16 18  1  0  0  0  0
 17 15  1  0  0  0  0
 19 21  1  0  0  0  0
 19 22  1  0  0  0  0
 20 19  1  0  0  0  0
 22 24  1  0  0  0  0
 23 22  1  0  0  0  0
M  END
>  <REMARK>
 VINA RESULT:      -4.6      1.819      2.415
 SMILES NCCc1c[nH]c2c(F)cccc12
 SMILES IDX 3 1 4 4 11 5 12 6 10 7 13 9 8 11 7 13 9 14 6 15 5 16 2 19
 SMILES IDX 1 22
 H PARENT 3 2 3 3 11 8 12 10 10 12 6 17 5 18 2 20 2 21 1 23 1 24
 Flexibility Score: inf

>  <TORSDO>
F 3

$$$$
./dock_file/liganddock202312151433/7Fluorotryptamine_PROamberH_GPCR5A_AF_selefeatureTOP200_color/7Fluorotryptamine_PROamberH_GPCR5A_AF_selefeatureTOP200_color_out_20.pdbqt
 OpenBabel12152314333D

 24 25  0  0  0  0  0  0  0  0999 V2000
  -24.1360   -2.5410   17.0220 C   0  0  0  0  0  0  0  0  0  0  0  0
  -23.1510   -2.9990   16.8690 H   0  0  0  0  0  0  0  0  0  0  0  0
  -23.9480   -1.4680   17.1590 H   0  0  0  0  0  0  0  0  0  0  0  0
  -24.7400   -3.1130   18.2680 C   0  0  0  0  0  0  0  0  0  0  0  0
  -24.8050   -0.8600   21.3710 C   0  0  0  0  0  0  0  0  0  0  0  0
  -24.5250   -1.1850   20.0360 C   0  0  0  0  0  0  0  0  0  0  0  0
  -25.4230   -1.7840   22.2100 C   0  0  0  0  0  0  0  0  0  0  0  0
  -24.5350    0.1210   21.7520 H   0  0  0  0  0  0  0  0  0  0  0  0
  -24.8720   -2.4600   19.5370 C   0  0  0  0  0  0  0  0  0  0  0  0
  -24.0410   -0.4570   19.3920 H   0  0  0  0  0  0  0  0  0  0  0  0
  -25.7710   -3.0440   21.7320 C   0  0  0  0  0  0  0  0  0  0  0  0
  -25.6380   -1.5310   23.2440 H   0  0  0  0  0  0  0  0  0  0  0  0
  -25.4900   -3.3620   20.4040 C   0  0  0  0  0  0  0  0  0  0  0  0
  -26.3640   -3.9320   22.5420 F   0  0  0  0  0  0  0  0  0  0  0  0
  -25.7230   -4.5160   19.6990 N   0  0  0  0  0  0  0  0  0  0  0  0
  -25.2830   -4.3760   18.4110 C   0  0  0  0  0  0  0  0  0  0  0  0
  -26.1540   -5.3440   20.0880 H   0  0  0  0  0  0  0  0  0  0  0  0
  -25.3780   -5.1900   17.7040 H   0  0  0  0  0  0  0  0  0  0  0  0
  -24.9800   -2.7710   15.7600 C   0  0  0  0  0  0  0  0  0  0  0  0
  -24.4910   -3.5340   15.1450 H   0  0  0  0  0  0  0  0  0  0  0  0
  -25.9730   -3.1530   16.0260 H   0  0  0  0  0  0  0  0  0  0  0  0
  -25.1380   -1.5660   14.9430 N   0  0  0  0  0  0  0  0  0  0  0  0
  -24.7090   -0.7700   15.4110 H   0  0  0  0  0  0  0  0  0  0  0  0
  -24.6470   -1.6880   14.0590 H   0  0  0  0  0  0  0  0  0  0  0  0
  1  3  1  0  0  0  0
  1  4  1  0  0  0  0
  2  1  1  0  0  0  0
  4 16  2  0  0  0  0
  4  9  1  0  0  0  0
  5  8  1  0  0  0  0
  5  7  2  0  0  0  0
  6  5  1  0  0  0  0
  7 12  1  0  0  0  0
  9  6  2  0  0  0  0
  9 13  1  0  0  0  0
 10  6  1  0  0  0  0
 11  7  1  0  0  0  0
 11 14  1  0  0  0  0
 13 11  2  0  0  0  0
 15 17  1  0  0  0  0
 15 13  1  0  0  0  0
 16 15  1  0  0  0  0
 18 16  1  0  0  0  0
 19 21  1  0  0  0  0
 19  1  1  0  0  0  0
 20 19  1  0  0  0  0
 22 23  1  0  0  0  0
 22 19  1  0  0  0  0
 24 22  1  0  0  0  0
M  END
>  <REMARK>
 VINA RESULT:      -4.5     15.810     17.328
 SMILES NCCc1c[nH]c2c(F)cccc12
 SMILES IDX 3 1 4 4 11 5 12 6 10 7 13 9 8 11 7 13 9 14 6 15 5 16 2 19
 SMILES IDX 1 22
 H PARENT 3 2 3 3 11 8 12 10 10 12 6 17 5 18 2 20 2 21 1 23 1 24
 Flexibility Score: inf

>  <TORSDO>
F 3

$$$$
