./dock_file/liganddock202312151433/7Fluorotryptamine_PROamberH_GPCR5A_AF_selefeatureTOP200_color/7Fluorotryptamine_PROamberH_GPCR5A_AF_selefeatureTOP200_color_out_17.pdbqt
 OpenBabel12152314333D

 24 25  0  0  0  0  0  0  0  0999 V2000
   -0.7030  -14.0390   -7.4290 C   0  0  0  0  0  0  0  0  0  0  0  0
   -1.3880  -14.8720   -7.2240 H   0  0  0  0  0  0  0  0  0  0  0  0
   -0.8280  -13.8050   -8.4940 H   0  0  0  0  0  0  0  0  0  0  0  0
    0.6990  -14.4990   -7.1710 C   0  0  0  0  0  0  0  0  0  0  0  0
    3.3900  -13.3810   -9.6650 C   0  0  0  0  0  0  0  0  0  0  0  0
    2.0910  -13.4660   -9.1410 C   0  0  0  0  0  0  0  0  0  0  0  0
    4.4520  -14.0220   -9.0320 C   0  0  0  0  0  0  0  0  0  0  0  0
    3.5650  -12.8120  -10.5740 H   0  0  0  0  0  0  0  0  0  0  0  0
    1.8580  -14.2060   -7.9610 C   0  0  0  0  0  0  0  0  0  0  0  0
    1.2710  -12.9630   -9.6450 H   0  0  0  0  0  0  0  0  0  0  0  0
    4.2360  -14.7550   -7.8680 C   0  0  0  0  0  0  0  0  0  0  0  0
    5.4560  -13.9560   -9.4390 H   0  0  0  0  0  0  0  0  0  0  0  0
    2.9440  -14.8350   -7.3520 C   0  0  0  0  0  0  0  0  0  0  0  0
    5.2600  -15.3710   -7.2610 F   0  0  0  0  0  0  0  0  0  0  0  0
    2.4710  -15.4860   -6.2400 N   0  0  0  0  0  0  0  0  0  0  0  0
    1.1230  -15.2840   -6.1160 C   0  0  0  0  0  0  0  0  0  0  0  0
    3.0450  -16.0350   -5.6140 H   0  0  0  0  0  0  0  0  0  0  0  0
    0.5720  -15.7280   -5.2980 H   0  0  0  0  0  0  0  0  0  0  0  0
   -1.1310  -12.8380   -6.5730 C   0  0  0  0  0  0  0  0  0  0  0  0
   -2.2250  -12.8150   -6.5210 H   0  0  0  0  0  0  0  0  0  0  0  0
   -0.7580  -12.9440   -5.5470 H   0  0  0  0  0  0  0  0  0  0  0  0
   -0.6790  -11.5530   -7.1120 N   0  0  0  0  0  0  0  0  0  0  0  0
    0.1500  -11.6900   -7.6870 H   0  0  0  0  0  0  0  0  0  0  0  0
   -1.3990  -11.1680   -7.7210 H   0  0  0  0  0  0  0  0  0  0  0  0
  1  2  1  0  0  0  0
  1  4  1  0  0  0  0
  1 19  1  0  0  0  0
  3  1  1  0  0  0  0
  4 16  2  0  0  0  0
  5  6  2  0  0  0  0
  5  7  1  0  0  0  0
  6  9  1  0  0  0  0
  7 11  2  0  0  0  0
  8  5  1  0  0  0  0
  9 13  2  0  0  0  0
  9  4  1  0  0  0  0
 10  6  1  0  0  0  0
 11 13  1  0  0  0  0
 11 14  1  0  0  0  0
 12  7  1  0  0  0  0
 13 15  1  0  0  0  0
 15 16  1  0  0  0  0
 15 17  1  0  0  0  0
 16 18  1  0  0  0  0
 19 20  1  0  0  0  0
 19 21  1  0  0  0  0
 22 19  1  0  0  0  0
 23 22  1  0  0  0  0
 24 22  1  0  0  0  0
M  END
>  <MODEL>
1

>  <REMARK>
 VINA RESULT:      -4.9      0.000      0.000
 SMILES NCCc1c[nH]c2c(F)cccc12
 SMILES IDX 3 1 4 4 11 5 12 6 10 7 13 9 8 11 7 13 9 14 6 15 5 16 2 19
 SMILES IDX 1 22
 H PARENT 3 2 3 3 11 8 12 10 10 12 6 17 5 18 2 20 2 21 1 23 1 24
 Flexibility Score: inf

>  <TORSDO>
F 3

$$$$
./dock_file/liganddock202312151433/7Fluorotryptamine_PROamberH_GPCR5A_AF_selefeatureTOP200_color/7Fluorotryptamine_PROamberH_GPCR5A_AF_selefeatureTOP200_color_out_17.pdbqt
 OpenBabel12152314333D

 24 25  0  0  0  0  0  0  0  0999 V2000
   -0.3540  -13.8960   -7.9660 C   0  0  0  0  0  0  0  0  0  0  0  0
   -0.7290  -14.9140   -7.8010 H   0  0  0  0  0  0  0  0  0  0  0  0
   -0.7510  -13.5860   -8.9410 H   0  0  0  0  0  0  0  0  0  0  0  0
    1.1420  -13.9420   -8.0180 C   0  0  0  0  0  0  0  0  0  0  0  0
    2.9250  -15.9320   -5.2660 C   0  0  0  0  0  0  0  0  0  0  0  0
    1.8170  -15.4040   -5.9450 C   0  0  0  0  0  0  0  0  0  0  0  0
    4.2170  -15.6900   -5.7230 C   0  0  0  0  0  0  0  0  0  0  0  0
    2.7700  -16.5330   -4.3740 H   0  0  0  0  0  0  0  0  0  0  0  0
    2.0140  -14.6200   -7.1030 C   0  0  0  0  0  0  0  0  0  0  0  0
    0.8140  -15.5980   -5.5770 H   0  0  0  0  0  0  0  0  0  0  0  0
    4.4260  -14.9180   -6.8630 C   0  0  0  0  0  0  0  0  0  0  0  0
    5.0740  -16.0980   -5.1950 H   0  0  0  0  0  0  0  0  0  0  0  0
    3.3210  -14.3970   -7.5350 C   0  0  0  0  0  0  0  0  0  0  0  0
    5.6710  -14.6860   -7.3010 F   0  0  0  0  0  0  0  0  0  0  0  0
    3.2550  -13.6150   -8.6610 N   0  0  0  0  0  0  0  0  0  0  0  0
    1.9490  -13.3420   -8.9660 C   0  0  0  0  0  0  0  0  0  0  0  0
    4.0610  -13.2920   -9.1780 H   0  0  0  0  0  0  0  0  0  0  0  0
    1.7000  -12.7310   -9.8230 H   0  0  0  0  0  0  0  0  0  0  0  0
   -0.9090  -12.9880   -6.8590 C   0  0  0  0  0  0  0  0  0  0  0  0
   -1.9940  -13.1320   -6.7990 H   0  0  0  0  0  0  0  0  0  0  0  0
   -0.4890  -13.2670   -5.8860 H   0  0  0  0  0  0  0  0  0  0  0  0
   -0.6560  -11.5650   -7.0970 N   0  0  0  0  0  0  0  0  0  0  0  0
    0.2340  -11.4470   -7.5750 H   0  0  0  0  0  0  0  0  0  0  0  0
   -1.3760  -11.1910   -7.7140 H   0  0  0  0  0  0  0  0  0  0  0  0
  1  2  1  0  0  0  0
  1 19  1  0  0  0  0
  3  1  1  0  0  0  0
  4  1  1  0  0  0  0
  4  9  1  0  0  0  0
  5  8  1  0  0  0  0
  6 10  1  0  0  0  0
  6  5  2  0  0  0  0
  7  5  1  0  0  0  0
  7 12  1  0  0  0  0
  9  6  1  0  0  0  0
 11  7  2  0  0  0  0
 13  9  2  0  0  0  0
 13 11  1  0  0  0  0
 14 11  1  0  0  0  0
 15 13  1  0  0  0  0
 16 15  1  0  0  0  0
 16  4  2  0  0  0  0
 17 15  1  0  0  0  0
 18 16  1  0  0  0  0
 19 20  1  0  0  0  0
 19 21  1  0  0  0  0
 22 19  1  0  0  0  0
 23 22  1  0  0  0  0
 24 22  1  0  0  0  0
M  END
>  <REMARK>
 VINA RESULT:      -4.7      1.363      2.500
 SMILES NCCc1c[nH]c2c(F)cccc12
 SMILES IDX 3 1 4 4 11 5 12 6 10 7 13 9 8 11 7 13 9 14 6 15 5 16 2 19
 SMILES IDX 1 22
 H PARENT 3 2 3 3 11 8 12 10 10 12 6 17 5 18 2 20 2 21 1 23 1 24
 Flexibility Score: inf

>  <TORSDO>
F 3

$$$$
./dock_file/liganddock202312151433/7Fluorotryptamine_PROamberH_GPCR5A_AF_selefeatureTOP200_color/7Fluorotryptamine_PROamberH_GPCR5A_AF_selefeatureTOP200_color_out_17.pdbqt
 OpenBabel12152314333D

 24 25  0  0  0  0  0  0  0  0999 V2000
    2.4800  -13.1970   -8.8390 C   0  0  0  0  0  0  0  0  0  0  0  0
    2.2600  -12.6680   -9.7750 H   0  0  0  0  0  0  0  0  0  0  0  0
    2.6620  -12.4150   -8.0900 H   0  0  0  0  0  0  0  0  0  0  0  0
    3.7200  -14.0140   -9.0320 C   0  0  0  0  0  0  0  0  0  0  0  0
    5.5990  -15.1100   -5.8730 C   0  0  0  0  0  0  0  0  0  0  0  0
    4.5780  -14.4740   -6.5950 C   0  0  0  0  0  0  0  0  0  0  0  0
    6.6110  -15.7990   -6.5360 C   0  0  0  0  0  0  0  0  0  0  0  0
    5.5970  -15.0630   -4.7870 H   0  0  0  0  0  0  0  0  0  0  0  0
    4.5760  -14.5320   -8.0060 C   0  0  0  0  0  0  0  0  0  0  0  0
    3.7950  -13.9380   -6.0660 H   0  0  0  0  0  0  0  0  0  0  0  0
    6.6220  -15.8640   -7.9260 C   0  0  0  0  0  0  0  0  0  0  0  0
    7.4010  -16.2900   -5.9750 H   0  0  0  0  0  0  0  0  0  0  0  0
    5.6050  -15.2300   -8.6380 C   0  0  0  0  0  0  0  0  0  0  0  0
    7.5980  -16.5260   -8.5620 F   0  0  0  0  0  0  0  0  0  0  0  0
    5.3910  -15.1410   -9.9910 N   0  0  0  0  0  0  0  0  0  0  0  0
    4.2550  -14.4190  -10.2400 C   0  0  0  0  0  0  0  0  0  0  0  0
    5.9940  -15.5510  -10.6910 H   0  0  0  0  0  0  0  0  0  0  0  0
    3.9290  -14.2390  -11.2550 H   0  0  0  0  0  0  0  0  0  0  0  0
    1.2460  -14.0230   -8.4470 C   0  0  0  0  0  0  0  0  0  0  0  0
    1.5070  -15.0860   -8.4910 H   0  0  0  0  0  0  0  0  0  0  0  0
    0.9470  -13.8030   -7.4160 H   0  0  0  0  0  0  0  0  0  0  0  0
    0.0990  -13.8040   -9.3320 N   0  0  0  0  0  0  0  0  0  0  0  0
   -0.3700  -14.6890   -9.5160 H   0  0  0  0  0  0  0  0  0  0  0  0
   -0.5780  -13.2020   -8.8670 H   0  0  0  0  0  0  0  0  0  0  0  0
  1 19  1  0  0  0  0
  1  3  1  0  0  0  0
  2  1  1  0  0  0  0
  4  1  1  0  0  0  0
  4  9  1  0  0  0  0
  5  8  1  0  0  0  0
  6 10  1  0  0  0  0
  6  5  2  0  0  0  0
  7 12  1  0  0  0  0
  7  5  1  0  0  0  0
  9  6  1  0  0  0  0
 11  7  2  0  0  0  0
 13  9  2  0  0  0  0
 13 11  1  0  0  0  0
 14 11  1  0  0  0  0
 15 13  1  0  0  0  0
 16 15  1  0  0  0  0
 16  4  2  0  0  0  0
 17 15  1  0  0  0  0
 18 16  1  0  0  0  0
 19 21  1  0  0  0  0
 20 19  1  0  0  0  0
 22 24  1  0  0  0  0
 22 19  1  0  0  0  0
 23 22  1  0  0  0  0
M  END
>  <REMARK>
 VINA RESULT:      -4.7      2.338      3.710
 SMILES NCCc1c[nH]c2c(F)cccc12
 SMILES IDX 3 1 4 4 11 5 12 6 10 7 13 9 8 11 7 13 9 14 6 15 5 16 2 19
 SMILES IDX 1 22
 H PARENT 3 2 3 3 11 8 12 10 10 12 6 17 5 18 2 20 2 21 1 23 1 24
 Flexibility Score: inf

>  <TORSDO>
F 3

$$$$
