MODEL 1
REMARK VINA RESULT:      -4.6      0.000      0.000
REMARK SMILES NCCc1c[nH]c2c(F)cccc12
REMARK SMILES IDX 3 1 4 4 11 5 12 6 10 7 13 9 8 11 7 13 9 14 6 15 5 16 2 19
REMARK SMILES IDX 1 22
REMARK H PARENT 3 2 3 3 11 8 12 10 10 12 6 17 5 18 2 20 2 21 1 23 1 24
REMARK Flexibility Score: inf
ROOT
ATOM      1  C   UNL     1       8.016   5.270  -1.824  1.00  0.00    -0.013 C 
ATOM      2  H   UNL     1       7.843   4.189  -1.907  1.00  0.00     0.033 H 
ATOM      3  H   UNL     1       7.378   5.733  -2.587  1.00  0.00     0.033 H 
ENDROOT
BRANCH   1   4
ATOM      4  C   UNL     1       9.456   5.547  -2.128  1.00  0.00    -0.021 A 
ATOM      5  C   UNL     1      11.217   3.162  -4.561  1.00  0.00    -0.059 A 
ATOM      6  C   UNL     1      10.139   3.649  -3.808  1.00  0.00    -0.052 A 
ATOM      7  C   UNL     1      12.455   3.799  -4.522  1.00  0.00    -0.024 A 
ATOM      8  H   UNL     1      11.083   2.278  -5.179  1.00  0.00     0.062 H 
ATOM      9  C   UNL     1      10.310   4.797  -3.002  1.00  0.00     0.006 A 
ATOM     10  H   UNL     1       9.180   3.142  -3.846  1.00  0.00     0.063 H 
ATOM     11  C   UNL     1      12.637   4.931  -3.732  1.00  0.00     0.147 A 
ATOM     12  H   UNL     1      13.288   3.420  -5.105  1.00  0.00     0.065 H 
ATOM     13  C   UNL     1      11.562   5.411  -2.985  1.00  0.00     0.082 A 
ATOM     14  F   UNL     1      13.829   5.542  -3.695  1.00  0.00    -0.205 F 
ATOM     15  N   UNL     1      11.480   6.488  -2.138  1.00  0.00    -0.359 N 
ATOM     16  C   UNL     1      10.216   6.584  -1.622  1.00  0.00     0.005 A 
ATOM     17  H   UNL     1      12.250   7.109  -1.930  1.00  0.00     0.166 HD
ATOM     18  H   UNL     1       9.964   7.373  -0.926  1.00  0.00     0.082 H 
ENDBRANCH   1   4
BRANCH   1  19
ATOM     19  C   UNL     1       7.577   5.726  -0.425  1.00  0.00    -0.004 C 
ATOM     20  H   UNL     1       8.000   5.039   0.317  1.00  0.00     0.043 H 
ATOM     21  H   UNL     1       7.971   6.725  -0.205  1.00  0.00     0.043 H 
BRANCH  19  22
ATOM     22  N   UNL     1       6.123   5.739  -0.250  1.00  0.00    -0.330 NA
ATOM     23  H   UNL     1       5.699   5.013  -0.823  1.00  0.00     0.118 HD
ATOM     24  H   UNL     1       5.895   5.522   0.719  1.00  0.00     0.118 HD
ENDBRANCH  19  22
ENDBRANCH   1  19
TORSDOF 3
ENDMDL
MODEL 2
REMARK VINA RESULT:      -4.5      4.378      5.768
REMARK SMILES NCCc1c[nH]c2c(F)cccc12
REMARK SMILES IDX 3 1 4 4 11 5 12 6 10 7 13 9 8 11 7 13 9 14 6 15 5 16 2 19
REMARK SMILES IDX 1 22
REMARK H PARENT 3 2 3 3 11 8 12 10 10 12 6 17 5 18 2 20 2 21 1 23 1 24
REMARK Flexibility Score: inf
ROOT
ATOM      1  C   UNL     1      11.822   7.621  -3.584  1.00  0.00    -0.013 C 
ATOM      2  H   UNL     1      12.341   7.619  -2.617  1.00  0.00     0.033 H 
ATOM      3  H   UNL     1      11.158   6.747  -3.567  1.00  0.00     0.033 H 
ENDROOT
BRANCH   1   4
ATOM      4  C   UNL     1      12.840   7.464  -4.672  1.00  0.00    -0.021 A 
ATOM      5  C   UNL     1      15.804   9.898  -4.653  1.00  0.00    -0.059 A 
ATOM      6  C   UNL     1      14.604   9.345  -4.183  1.00  0.00    -0.052 A 
ATOM      7  C   UNL     1      16.427   9.380  -5.785  1.00  0.00    -0.024 A 
ATOM      8  H   UNL     1      16.248  10.740  -4.128  1.00  0.00     0.062 H 
ATOM      9  C   UNL     1      14.021   8.253  -4.863  1.00  0.00     0.006 A 
ATOM     10  H   UNL     1      14.126   9.760  -3.300  1.00  0.00     0.063 H 
ATOM     11  C   UNL     1      15.864   8.303  -6.465  1.00  0.00     0.147 A 
ATOM     12  H   UNL     1      17.356   9.809  -6.147  1.00  0.00     0.065 H 
ATOM     13  C   UNL     1      14.672   7.757  -5.993  1.00  0.00     0.082 A 
ATOM     14  F   UNL     1      16.466   7.807  -7.555  1.00  0.00    -0.205 F 
ATOM     15  N   UNL     1      13.921   6.714  -6.475  1.00  0.00    -0.359 N 
ATOM     16  C   UNL     1      12.821   6.523  -5.684  1.00  0.00     0.005 A 
ATOM     17  H   UNL     1      14.156   6.176  -7.298  1.00  0.00     0.166 HD
ATOM     18  H   UNL     1      12.106   5.744  -5.913  1.00  0.00     0.082 H 
ENDBRANCH   1   4
BRANCH   1  19
ATOM     19  C   UNL     1      10.993   8.909  -3.689  1.00  0.00    -0.004 C 
ATOM     20  H   UNL     1      11.459   9.678  -3.063  1.00  0.00     0.043 H 
ATOM     21  H   UNL     1      10.992   9.283  -4.719  1.00  0.00     0.043 H 
BRANCH  19  22
ATOM     22  N   UNL     1       9.608   8.743  -3.242  1.00  0.00    -0.330 NA
ATOM     23  H   UNL     1       9.254   7.836  -3.540  1.00  0.00     0.118 HD
ATOM     24  H   UNL     1       9.575   8.753  -2.224  1.00  0.00     0.118 HD
ENDBRANCH  19  22
ENDBRANCH   1  19
TORSDOF 3
ENDMDL
MODEL 3
REMARK VINA RESULT:      -4.5      2.594      4.750
REMARK SMILES NCCc1c[nH]c2c(F)cccc12
REMARK SMILES IDX 3 1 4 4 11 5 12 6 10 7 13 9 8 11 7 13 9 14 6 15 5 16 2 19
REMARK SMILES IDX 1 22
REMARK H PARENT 3 2 3 3 11 8 12 10 10 12 6 17 5 18 2 20 2 21 1 23 1 24
REMARK Flexibility Score: inf
ROOT
ATOM      1  C   UNL     1      14.243   7.068  -4.866  1.00  0.00    -0.013 C 
ATOM      2  H   UNL     1      14.686   6.136  -5.241  1.00  0.00     0.033 H 
ATOM      3  H   UNL     1      15.030   7.557  -4.279  1.00  0.00     0.033 H 
ENDROOT
BRANCH   1   4
ATOM      4  C   UNL     1      13.087   6.723  -3.979  1.00  0.00    -0.021 A 
ATOM      5  C   UNL     1      11.331   3.374  -4.620  1.00  0.00    -0.059 A 
ATOM      6  C   UNL     1      12.284   4.379  -4.844  1.00  0.00    -0.052 A 
ATOM      7  C   UNL     1      10.388   3.505  -3.604  1.00  0.00    -0.024 A 
ATOM      8  H   UNL     1      11.330   2.486  -5.248  1.00  0.00     0.062 H 
ATOM      9  C   UNL     1      12.287   5.534  -4.032  1.00  0.00     0.006 A 
ATOM     10  H   UNL     1      13.013   4.265  -5.641  1.00  0.00     0.063 H 
ATOM     11  C   UNL     1      10.379   4.639  -2.797  1.00  0.00     0.147 A 
ATOM     12  H   UNL     1       9.651   2.727  -3.433  1.00  0.00     0.065 H 
ATOM     13  C   UNL     1      11.329   5.635  -3.023  1.00  0.00     0.082 A 
ATOM     14  F   UNL     1       9.470   4.764  -1.821  1.00  0.00    -0.205 F 
ATOM     15  N   UNL     1      11.531   6.832  -2.382  1.00  0.00    -0.359 N 
ATOM     16  C   UNL     1      12.590   7.491  -2.943  1.00  0.00     0.005 A 
ATOM     17  H   UNL     1      10.968   7.167  -1.612  1.00  0.00     0.166 HD
ATOM     18  H   UNL     1      12.895   8.460  -2.571  1.00  0.00     0.082 H 
ENDBRANCH   1   4
BRANCH   1  19
ATOM     19  C   UNL     1      13.864   7.943  -6.069  1.00  0.00    -0.004 C 
ATOM     20  H   UNL     1      13.432   8.880  -5.699  1.00  0.00     0.043 H 
ATOM     21  H   UNL     1      14.755   8.204  -6.652  1.00  0.00     0.043 H 
BRANCH  19  22
ATOM     22  N   UNL     1      12.883   7.314  -6.957  1.00  0.00    -0.330 NA
ATOM     23  H   UNL     1      13.256   7.260  -7.902  1.00  0.00     0.118 HD
ATOM     24  H   UNL     1      12.712   6.358  -6.651  1.00  0.00     0.118 HD
ENDBRANCH  19  22
ENDBRANCH   1  19
TORSDOF 3
ENDMDL
