MODEL 1
REMARK VINA RESULT:      -5.3      0.000      0.000
REMARK SMILES NCCc1c[nH]c2c(F)cccc12
REMARK SMILES IDX 3 1 4 4 11 5 12 6 10 7 13 9 8 11 7 13 9 14 6 15 5 16 2 19
REMARK SMILES IDX 1 22
REMARK H PARENT 3 2 3 3 11 8 12 10 10 12 6 17 5 18 2 20 2 21 1 23 1 24
REMARK Flexibility Score: inf
ROOT
ATOM      1  C   UNL     1      16.112  -5.309  -4.280  1.00  0.00    -0.013 C 
ATOM      2  H   UNL     1      15.300  -4.595  -4.466  1.00  0.00     0.033 H 
ATOM      3  H   UNL     1      16.987  -4.702  -4.014  1.00  0.00     0.033 H 
ENDROOT
BRANCH   1   4
ATOM      4  C   UNL     1      16.382  -6.065  -5.544  1.00  0.00    -0.021 A 
ATOM      5  C   UNL     1      13.492  -8.124  -6.999  1.00  0.00    -0.059 A 
ATOM      6  C   UNL     1      14.111  -7.269  -6.076  1.00  0.00    -0.052 A 
ATOM      7  C   UNL     1      14.195  -8.607  -8.100  1.00  0.00    -0.024 A 
ATOM      8  H   UNL     1      12.454  -8.412  -6.851  1.00  0.00     0.062 H 
ATOM      9  C   UNL     1      15.460  -6.893  -6.264  1.00  0.00     0.006 A 
ATOM     10  H   UNL     1      13.553  -6.900  -5.221  1.00  0.00     0.063 H 
ATOM     11  C   UNL     1      15.525  -8.245  -8.297  1.00  0.00     0.147 A 
ATOM     12  H   UNL     1      13.714  -9.269  -8.813  1.00  0.00     0.065 H 
ATOM     13  C   UNL     1      16.136  -7.394  -7.377  1.00  0.00     0.082 A 
ATOM     14  F   UNL     1      16.200  -8.712  -9.356  1.00  0.00    -0.205 F 
ATOM     15  N   UNL     1      17.415  -6.898  -7.339  1.00  0.00    -0.359 N 
ATOM     16  C   UNL     1      17.572  -6.090  -6.246  1.00  0.00     0.005 A 
ATOM     17  H   UNL     1      18.128  -7.109  -8.024  1.00  0.00     0.166 HD
ATOM     18  H   UNL     1      18.522  -5.612  -6.047  1.00  0.00     0.082 H 
ENDBRANCH   1   4
BRANCH   1  19
ATOM     19  C   UNL     1      15.712  -6.201  -3.096  1.00  0.00    -0.004 C 
ATOM     20  H   UNL     1      15.804  -7.249  -3.399  1.00  0.00     0.043 H 
ATOM     21  H   UNL     1      16.392  -6.046  -2.250  1.00  0.00     0.043 H 
BRANCH  19  22
ATOM     22  N   UNL     1      14.335  -5.982  -2.645  1.00  0.00    -0.330 NA
ATOM     23  H   UNL     1      14.136  -4.984  -2.614  1.00  0.00     0.118 HD
ATOM     24  H   UNL     1      13.689  -6.392  -3.317  1.00  0.00     0.118 HD
ENDBRANCH  19  22
ENDBRANCH   1  19
TORSDOF 3
ENDMDL
MODEL 2
REMARK VINA RESULT:      -5.0     10.257     11.762
REMARK SMILES NCCc1c[nH]c2c(F)cccc12
REMARK SMILES IDX 3 1 4 4 11 5 12 6 10 7 13 9 8 11 7 13 9 14 6 15 5 16 2 19
REMARK SMILES IDX 1 22
REMARK H PARENT 3 2 3 3 11 8 12 10 10 12 6 17 5 18 2 20 2 21 1 23 1 24
REMARK Flexibility Score: inf
ROOT
ATOM      1  C   UNL     1       8.396 -13.717 -13.617  1.00  0.00    -0.013 C 
ATOM      2  H   UNL     1       8.373 -12.682 -13.982  1.00  0.00     0.033 H 
ATOM      3  H   UNL     1       7.611 -13.781 -12.852  1.00  0.00     0.033 H 
ENDROOT
BRANCH   1   4
ATOM      4  C   UNL     1       9.733 -13.974 -12.994  1.00  0.00    -0.021 A 
ATOM      5  C   UNL     1      12.824 -13.375 -15.185  1.00  0.00    -0.059 A 
ATOM      6  C   UNL     1      11.452 -13.416 -14.898  1.00  0.00    -0.052 A 
ATOM      7  C   UNL     1      13.761 -13.729 -14.218  1.00  0.00    -0.024 A 
ATOM      8  H   UNL     1      13.156 -13.066 -16.173  1.00  0.00     0.062 H 
ATOM      9  C   UNL     1      11.015 -13.819 -13.616  1.00  0.00     0.006 A 
ATOM     10  H   UNL     1      10.731 -13.140 -15.661  1.00  0.00     0.063 H 
ATOM     11  C   UNL     1      13.345 -14.129 -12.951  1.00  0.00     0.147 A 
ATOM     12  H   UNL     1      14.822 -13.698 -14.442  1.00  0.00     0.065 H 
ATOM     13  C   UNL     1      11.980 -14.167 -12.670  1.00  0.00     0.082 A 
ATOM     14  F   UNL     1      14.248 -14.469 -12.022  1.00  0.00    -0.205 F 
ATOM     15  N   UNL     1      11.319 -14.522 -11.521  1.00  0.00    -0.359 N 
ATOM     16  C   UNL     1       9.967 -14.402 -11.701  1.00  0.00     0.005 A 
ATOM     17  H   UNL     1      11.776 -14.829 -10.673  1.00  0.00     0.166 HD
ATOM     18  H   UNL     1       9.281 -14.646 -10.901  1.00  0.00     0.082 H 
ENDBRANCH   1   4
BRANCH   1  19
ATOM     19  C   UNL     1       8.065 -14.653 -14.788  1.00  0.00    -0.004 C 
ATOM     20  H   UNL     1       8.754 -15.504 -14.763  1.00  0.00     0.043 H 
ATOM     21  H   UNL     1       7.050 -15.053 -14.687  1.00  0.00     0.043 H 
BRANCH  19  22
ATOM     22  N   UNL     1       8.194 -14.009 -16.097  1.00  0.00    -0.330 NA
ATOM     23  H   UNL     1       9.112 -14.203 -16.491  1.00  0.00     0.118 HD
ATOM     24  H   UNL     1       7.508 -14.402 -16.739  1.00  0.00     0.118 HD
ENDBRANCH  19  22
ENDBRANCH   1  19
TORSDOF 3
ENDMDL
MODEL 3
REMARK VINA RESULT:      -5.0      2.435      4.461
REMARK SMILES NCCc1c[nH]c2c(F)cccc12
REMARK SMILES IDX 3 1 4 4 11 5 12 6 10 7 13 9 8 11 7 13 9 14 6 15 5 16 2 19
REMARK SMILES IDX 1 22
REMARK H PARENT 3 2 3 3 11 8 12 10 10 12 6 17 5 18 2 20 2 21 1 23 1 24
REMARK Flexibility Score: inf
ROOT
ATOM      1  C   UNL     1      14.161  -8.089  -7.970  1.00  0.00    -0.013 C 
ATOM      2  H   UNL     1      13.283  -7.469  -7.748  1.00  0.00     0.033 H 
ATOM      3  H   UNL     1      13.958  -9.067  -7.514  1.00  0.00     0.033 H 
ENDROOT
BRANCH   1   4
ATOM      4  C   UNL     1      15.361  -7.467  -7.325  1.00  0.00    -0.021 A 
ATOM      5  C   UNL     1      14.819  -5.708  -3.960  1.00  0.00    -0.059 A 
ATOM      6  C   UNL     1      14.434  -6.428  -5.100  1.00  0.00    -0.052 A 
ATOM      7  C   UNL     1      16.145  -5.320  -3.782  1.00  0.00    -0.024 A 
ATOM      8  H   UNL     1      14.075  -5.450  -3.211  1.00  0.00     0.062 H 
ATOM      9  C   UNL     1      15.397  -6.764  -6.076  1.00  0.00     0.006 A 
ATOM     10  H   UNL     1      13.397  -6.723  -5.228  1.00  0.00     0.063 H 
ATOM     11  C   UNL     1      17.105  -5.643  -4.737  1.00  0.00     0.147 A 
ATOM     12  H   UNL     1      16.441  -4.761  -2.900  1.00  0.00     0.065 H 
ATOM     13  C   UNL     1      16.716  -6.360  -5.867  1.00  0.00     0.082 A 
ATOM     14  F   UNL     1      18.380  -5.268  -4.563  1.00  0.00    -0.205 F 
ATOM     15  N   UNL     1      17.454  -6.794  -6.940  1.00  0.00    -0.359 N 
ATOM     16  C   UNL     1      16.651  -7.468  -7.820  1.00  0.00     0.005 A 
ATOM     17  H   UNL     1      18.445  -6.630  -7.054  1.00  0.00     0.166 HD
ATOM     18  H   UNL     1      17.059  -7.881  -8.733  1.00  0.00     0.082 H 
ENDBRANCH   1   4
BRANCH   1  19
ATOM     19  C   UNL     1      14.280  -8.235  -9.494  1.00  0.00    -0.004 C 
ATOM     20  H   UNL     1      15.136  -8.881  -9.719  1.00  0.00     0.043 H 
ATOM     21  H   UNL     1      13.388  -8.722  -9.904  1.00  0.00     0.043 H 
BRANCH  19  22
ATOM     22  N   UNL     1      14.485  -6.959 -10.183  1.00  0.00    -0.330 NA
ATOM     23  H   UNL     1      13.715  -6.784 -10.825  1.00  0.00     0.118 HD
ATOM     24  H   UNL     1      14.480  -6.201  -9.502  1.00  0.00     0.118 HD
ENDBRANCH  19  22
ENDBRANCH   1  19
TORSDOF 3
ENDMDL
