./dock_file/liganddock202312151433/7Fluorotryptamine_PROamberH_GPCR5A_AF_selefeatureTOP200_color/7Fluorotryptamine_PROamberH_GPCR5A_AF_selefeatureTOP200_color_out_2.pdbqt
 OpenBabel12152314333D

 24 25  0  0  0  0  0  0  0  0999 V2000
    9.1240    1.6800  -16.0460 C   0  0  0  0  0  0  0  0  0  0  0  0
    9.5140    1.9520  -15.0570 H   0  0  0  0  0  0  0  0  0  0  0  0
    9.6770    0.7810  -16.3470 H   0  0  0  0  0  0  0  0  0  0  0  0
    9.4160    2.7990  -16.9980 C   0  0  0  0  0  0  0  0  0  0  0  0
   13.0520    3.9990  -17.2190 C   0  0  0  0  0  0  0  0  0  0  0  0
   11.9970    3.2050  -16.7470 C   0  0  0  0  0  0  0  0  0  0  0  0
   12.8240    4.9840  -18.1760 C   0  0  0  0  0  0  0  0  0  0  0  0
   14.0560    3.8430  -16.8320 H   0  0  0  0  0  0  0  0  0  0  0  0
   10.6910    3.4050  -17.2470 C   0  0  0  0  0  0  0  0  0  0  0  0
   12.1880    2.4410  -15.9990 H   0  0  0  0  0  0  0  0  0  0  0  0
   11.5420    5.1930  -18.6770 C   0  0  0  0  0  0  0  0  0  0  0  0
   13.6410    5.5990  -18.5400 H   0  0  0  0  0  0  0  0  0  0  0  0
   10.4970    4.4000  -18.2050 C   0  0  0  0  0  0  0  0  0  0  0  0
   11.3240    6.1420  -19.5970 F   0  0  0  0  0  0  0  0  0  0  0  0
    9.1630    4.4050  -18.5270 N   0  0  0  0  0  0  0  0  0  0  0  0
    8.5040    3.4410  -17.8140 C   0  0  0  0  0  0  0  0  0  0  0  0
    8.7400    5.0370  -19.1930 H   0  0  0  0  0  0  0  0  0  0  0  0
    7.4380    3.3000  -17.9320 H   0  0  0  0  0  0  0  0  0  0  0  0
    7.6300    1.3560  -15.9070 C   0  0  0  0  0  0  0  0  0  0  0  0
    7.4090    1.1650  -14.8520 H   0  0  0  0  0  0  0  0  0  0  0  0
    7.0200    2.2130  -16.2180 H   0  0  0  0  0  0  0  0  0  0  0  0
    7.2190    0.1780  -16.6750 N   0  0  0  0  0  0  0  0  0  0  0  0
    7.9430   -0.5360  -16.6270 H   0  0  0  0  0  0  0  0  0  0  0  0
    6.3810   -0.2240  -16.2590 H   0  0  0  0  0  0  0  0  0  0  0  0
  1 19  1  0  0  0  0
  1  2  1  0  0  0  0
  3  1  1  0  0  0  0
  4  1  1  0  0  0  0
  5  8  1  0  0  0  0
  5  6  1  0  0  0  0
  6 10  1  0  0  0  0
  7  5  2  0  0  0  0
  9  4  1  0  0  0  0
  9  6  2  0  0  0  0
 11 13  2  0  0  0  0
 11  7  1  0  0  0  0
 12  7  1  0  0  0  0
 13  9  1  0  0  0  0
 14 11  1  0  0  0  0
 15 13  1  0  0  0  0
 15 16  1  0  0  0  0
 16  4  2  0  0  0  0
 17 15  1  0  0  0  0
 18 16  1  0  0  0  0
 19 20  1  0  0  0  0
 21 19  1  0  0  0  0
 22 23  1  0  0  0  0
 22 24  1  0  0  0  0
 22 19  1  0  0  0  0
M  END
>  <MODEL>
1

>  <REMARK>
 VINA RESULT:      -4.7      0.000      0.000
 SMILES NCCc1c[nH]c2c(F)cccc12
 SMILES IDX 3 1 4 4 11 5 12 6 10 7 13 9 8 11 7 13 9 14 6 15 5 16 2 19
 SMILES IDX 1 22
 H PARENT 3 2 3 3 11 8 12 10 10 12 6 17 5 18 2 20 2 21 1 23 1 24
 Flexibility Score: inf

>  <TORSDO>
F 3

$$$$
./dock_file/liganddock202312151433/7Fluorotryptamine_PROamberH_GPCR5A_AF_selefeatureTOP200_color/7Fluorotryptamine_PROamberH_GPCR5A_AF_selefeatureTOP200_color_out_2.pdbqt
 OpenBabel12152314333D

 24 25  0  0  0  0  0  0  0  0999 V2000
    7.6480    1.7650  -15.1580 C   0  0  0  0  0  0  0  0  0  0  0  0
    7.3220    2.8050  -15.0280 H   0  0  0  0  0  0  0  0  0  0  0  0
    7.6580    1.3280  -14.1510 H   0  0  0  0  0  0  0  0  0  0  0  0
    9.0340    1.7670  -15.7250 C   0  0  0  0  0  0  0  0  0  0  0  0
    9.6720    4.0070  -18.7720 C   0  0  0  0  0  0  0  0  0  0  0  0
    8.9040    3.4350  -17.7470 C   0  0  0  0  0  0  0  0  0  0  0  0
   11.0180    3.6810  -18.9140 C   0  0  0  0  0  0  0  0  0  0  0  0
    9.2090    4.7090  -19.4600 H   0  0  0  0  0  0  0  0  0  0  0  0
    9.5010    2.5200  -16.8510 C   0  0  0  0  0  0  0  0  0  0  0  0
    7.8550    3.6950  -17.6480 H   0  0  0  0  0  0  0  0  0  0  0  0
   11.6190    2.7810  -18.0390 C   0  0  0  0  0  0  0  0  0  0  0  0
   11.6110    4.1240  -19.7090 H   0  0  0  0  0  0  0  0  0  0  0  0
   10.8520    2.2160  -17.0210 C   0  0  0  0  0  0  0  0  0  0  0  0
   12.9150    2.4690  -18.1780 F   0  0  0  0  0  0  0  0  0  0  0  0
   11.1960    1.3140  -16.0450 N   0  0  0  0  0  0  0  0  0  0  0  0
   10.1130    1.0430  -15.2550 C   0  0  0  0  0  0  0  0  0  0  0  0
   12.1180    0.9140  -15.9400 H   0  0  0  0  0  0  0  0  0  0  0  0
   10.1930    0.3450  -14.4310 H   0  0  0  0  0  0  0  0  0  0  0  0
    6.6180    1.0400  -16.0360 C   0  0  0  0  0  0  0  0  0  0  0  0
    5.7680    0.7470  -15.4100 H   0  0  0  0  0  0  0  0  0  0  0  0
    6.2340    1.7110  -16.8130 H   0  0  0  0  0  0  0  0  0  0  0  0
    7.1480   -0.1690  -16.6700 N   0  0  0  0  0  0  0  0  0  0  0  0
    8.0570   -0.3990  -16.2740 H   0  0  0  0  0  0  0  0  0  0  0  0
    6.5320   -0.9560  -16.4710 H   0  0  0  0  0  0  0  0  0  0  0  0
  1  2  1  0  0  0  0
  1  3  1  0  0  0  0
  4 16  2  0  0  0  0
  4  1  1  0  0  0  0
  5  6  1  0  0  0  0
  6 10  1  0  0  0  0
  6  9  2  0  0  0  0
  7  5  2  0  0  0  0
  7 11  1  0  0  0  0
  8  5  1  0  0  0  0
  9  4  1  0  0  0  0
 11 13  2  0  0  0  0
 12  7  1  0  0  0  0
 13  9  1  0  0  0  0
 13 15  1  0  0  0  0
 14 11  1  0  0  0  0
 15 17  1  0  0  0  0
 15 16  1  0  0  0  0
 16 18  1  0  0  0  0
 19 20  1  0  0  0  0
 19  1  1  0  0  0  0
 21 19  1  0  0  0  0
 22 24  1  0  0  0  0
 22 23  1  0  0  0  0
 22 19  1  0  0  0  0
M  END
>  <REMARK>
 VINA RESULT:      -4.6      2.077      2.838
 SMILES NCCc1c[nH]c2c(F)cccc12
 SMILES IDX 3 1 4 4 11 5 12 6 10 7 13 9 8 11 7 13 9 14 6 15 5 16 2 19
 SMILES IDX 1 22
 H PARENT 3 2 3 3 11 8 12 10 10 12 6 17 5 18 2 20 2 21 1 23 1 24
 Flexibility Score: inf

>  <TORSDO>
F 3

$$$$
./dock_file/liganddock202312151433/7Fluorotryptamine_PROamberH_GPCR5A_AF_selefeatureTOP200_color/7Fluorotryptamine_PROamberH_GPCR5A_AF_selefeatureTOP200_color_out_2.pdbqt
 OpenBabel12152314333D

 24 25  0  0  0  0  0  0  0  0999 V2000
    9.4080    1.2790  -15.7640 C   0  0  0  0  0  0  0  0  0  0  0  0
    9.5170    1.1090  -14.6850 H   0  0  0  0  0  0  0  0  0  0  0  0
    9.7790    0.3670  -16.2490 H   0  0  0  0  0  0  0  0  0  0  0  0
   10.2640    2.4450  -16.1520 C   0  0  0  0  0  0  0  0  0  0  0  0
   10.2550    3.4650  -19.8490 C   0  0  0  0  0  0  0  0  0  0  0  0
    9.8840    2.6960  -18.7370 C   0  0  0  0  0  0  0  0  0  0  0  0
   11.1450    4.5280  -19.7110 C   0  0  0  0  0  0  0  0  0  0  0  0
    9.8450    3.2270  -20.8270 H   0  0  0  0  0  0  0  0  0  0  0  0
   10.4160    3.0010  -17.4640 C   0  0  0  0  0  0  0  0  0  0  0  0
    9.1910    1.8690  -18.8580 H   0  0  0  0  0  0  0  0  0  0  0  0
   11.6770    4.8390  -18.4630 C   0  0  0  0  0  0  0  0  0  0  0  0
   11.4320    5.1210  -20.5730 H   0  0  0  0  0  0  0  0  0  0  0  0
   11.3040    4.0720  -17.3600 C   0  0  0  0  0  0  0  0  0  0  0  0
   12.5330    5.8610  -18.3320 F   0  0  0  0  0  0  0  0  0  0  0  0
   11.6810    4.1660  -16.0440 N   0  0  0  0  0  0  0  0  0  0  0  0
   11.0550    3.1980  -15.3060 C   0  0  0  0  0  0  0  0  0  0  0  0
   12.3310    4.8530  -15.6850 H   0  0  0  0  0  0  0  0  0  0  0  0
   11.2360    3.1130  -14.2430 H   0  0  0  0  0  0  0  0  0  0  0  0
    7.9160    1.4710  -16.0770 C   0  0  0  0  0  0  0  0  0  0  0  0
    7.3920    1.7150  -15.1470 H   0  0  0  0  0  0  0  0  0  0  0  0
    7.7730    2.3140  -16.7630 H   0  0  0  0  0  0  0  0  0  0  0  0
    7.2870    0.2790  -16.6500 N   0  0  0  0  0  0  0  0  0  0  0  0
    7.9990   -0.3320  -17.0450 H   0  0  0  0  0  0  0  0  0  0  0  0
    6.8220   -0.2470  -15.9130 H   0  0  0  0  0  0  0  0  0  0  0  0
  1  2  1  0  0  0  0
  3  1  1  0  0  0  0
  4  1  1  0  0  0  0
  4 16  2  0  0  0  0
  5  7  2  0  0  0  0
  5  6  1  0  0  0  0
  6  9  2  0  0  0  0
  7 11  1  0  0  0  0
  8  5  1  0  0  0  0
  9 13  1  0  0  0  0
  9  4  1  0  0  0  0
 10  6  1  0  0  0  0
 11 14  1  0  0  0  0
 11 13  2  0  0  0  0
 12  7  1  0  0  0  0
 13 15  1  0  0  0  0
 15 17  1  0  0  0  0
 15 16  1  0  0  0  0
 16 18  1  0  0  0  0
 19  1  1  0  0  0  0
 19 20  1  0  0  0  0
 21 19  1  0  0  0  0
 22 19  1  0  0  0  0
 22 24  1  0  0  0  0
 23 22  1  0  0  0  0
M  END
>  <REMARK>
 VINA RESULT:      -4.6      1.533      2.177
 SMILES NCCc1c[nH]c2c(F)cccc12
 SMILES IDX 3 1 4 4 11 5 12 6 10 7 13 9 8 11 7 13 9 14 6 15 5 16 2 19
 SMILES IDX 1 22
 H PARENT 3 2 3 3 11 8 12 10 10 12 6 17 5 18 2 20 2 21 1 23 1 24
 Flexibility Score: inf

>  <TORSDO>
F 3

$$$$
