MODEL 1
REMARK VINA RESULT:      -4.7      0.000      0.000
REMARK SMILES NCCc1c[nH]c2c(F)cccc12
REMARK SMILES IDX 3 1 4 4 11 5 12 6 10 7 13 9 8 11 7 13 9 14 6 15 5 16 2 19
REMARK SMILES IDX 1 22
REMARK H PARENT 3 2 3 3 11 8 12 10 10 12 6 17 5 18 2 20 2 21 1 23 1 24
REMARK Flexibility Score: inf
ROOT
ATOM      1  C   UNL     1     -25.022  10.687  12.323  1.00  0.00    -0.013 C 
ATOM      2  H   UNL     1     -24.314   9.993  11.852  1.00  0.00     0.033 H 
ATOM      3  H   UNL     1     -25.627  10.077  13.006  1.00  0.00     0.033 H 
ENDROOT
BRANCH   1   4
ATOM      4  C   UNL     1     -25.896  11.273  11.257  1.00  0.00    -0.021 A 
ATOM      5  C   UNL     1     -26.913   8.966   8.368  1.00  0.00    -0.059 A 
ATOM      6  C   UNL     1     -26.273   9.298   9.570  1.00  0.00    -0.052 A 
ATOM      7  C   UNL     1     -27.673   9.912   7.684  1.00  0.00    -0.024 A 
ATOM      8  H   UNL     1     -26.814   7.960   7.968  1.00  0.00     0.062 H 
ATOM      9  C   UNL     1     -26.398  10.604  10.093  1.00  0.00     0.006 A 
ATOM     10  H   UNL     1     -25.682   8.552  10.093  1.00  0.00     0.063 H 
ATOM     11  C   UNL     1     -27.804  11.203   8.188  1.00  0.00     0.147 A 
ATOM     12  H   UNL     1     -28.167   9.653   6.753  1.00  0.00     0.065 H 
ATOM     13  C   UNL     1     -27.165  11.528   9.384  1.00  0.00     0.082 A 
ATOM     14  F   UNL     1     -28.534  12.112   7.528  1.00  0.00    -0.205 F 
ATOM     15  N   UNL     1     -27.133  12.711  10.080  1.00  0.00    -0.359 N 
ATOM     16  C   UNL     1     -26.379  12.567  11.213  1.00  0.00     0.005 A 
ATOM     17  H   UNL     1     -27.599  13.558   9.786  1.00  0.00     0.166 HD
ATOM     18  H   UNL     1     -26.234  13.401  11.888  1.00  0.00     0.082 H 
ENDBRANCH   1   4
BRANCH   1  19
ATOM     19  C   UNL     1     -24.224  11.731  13.117  1.00  0.00    -0.004 C 
ATOM     20  H   UNL     1     -23.815  12.467  12.416  1.00  0.00     0.043 H 
ATOM     21  H   UNL     1     -24.879  12.270  13.811  1.00  0.00     0.043 H 
BRANCH  19  22
ATOM     22  N   UNL     1     -23.105  11.156  13.868  1.00  0.00    -0.330 NA
ATOM     23  H   UNL     1     -22.346  11.831  13.931  1.00  0.00     0.118 HD
ATOM     24  H   UNL     1     -23.403  10.957  14.821  1.00  0.00     0.118 HD
ENDBRANCH  19  22
ENDBRANCH   1  19
TORSDOF 3
ENDMDL
MODEL 2
REMARK VINA RESULT:      -4.6      1.819      2.415
REMARK SMILES NCCc1c[nH]c2c(F)cccc12
REMARK SMILES IDX 3 1 4 4 11 5 12 6 10 7 13 9 8 11 7 13 9 14 6 15 5 16 2 19
REMARK SMILES IDX 1 22
REMARK H PARENT 3 2 3 3 11 8 12 10 10 12 6 17 5 18 2 20 2 21 1 23 1 24
REMARK Flexibility Score: inf
ROOT
ATOM      1  C   UNL     1     -26.275  12.376  11.913  1.00  0.00    -0.013 C 
ATOM      2  H   UNL     1     -26.721  12.098  12.877  1.00  0.00     0.033 H 
ATOM      3  H   UNL     1     -26.897  13.191  11.521  1.00  0.00     0.033 H 
ENDROOT
BRANCH   1   4
ATOM      4  C   UNL     1     -26.346  11.195  10.996  1.00  0.00    -0.021 A 
ATOM      5  C   UNL     1     -28.285  11.646   7.717  1.00  0.00    -0.059 A 
ATOM      6  C   UNL     1     -27.759  12.047   8.954  1.00  0.00    -0.052 A 
ATOM      7  C   UNL     1     -28.075  10.354   7.243  1.00  0.00    -0.024 A 
ATOM      8  H   UNL     1     -28.862  12.352   7.126  1.00  0.00     0.062 H 
ATOM      9  C   UNL     1     -27.010  11.132   9.726  1.00  0.00     0.006 A 
ATOM     10  H   UNL     1     -27.932  13.057   9.314  1.00  0.00     0.063 H 
ATOM     11  C   UNL     1     -27.338   9.442   7.994  1.00  0.00     0.147 A 
ATOM     12  H   UNL     1     -28.483  10.045   6.286  1.00  0.00     0.065 H 
ATOM     13  C   UNL     1     -26.818   9.846   9.223  1.00  0.00     0.082 A 
ATOM     14  F   UNL     1     -27.138   8.199   7.536  1.00  0.00    -0.205 F 
ATOM     15  N   UNL     1     -26.072   9.151  10.143  1.00  0.00    -0.359 N 
ATOM     16  C   UNL     1     -25.776   9.955  11.209  1.00  0.00     0.005 A 
ATOM     17  H   UNL     1     -25.793   8.185  10.037  1.00  0.00     0.166 HD
ATOM     18  H   UNL     1     -25.198   9.575  12.041  1.00  0.00     0.082 H 
ENDBRANCH   1   4
BRANCH   1  19
ATOM     19  C   UNL     1     -24.847  12.881  12.167  1.00  0.00    -0.004 C 
ATOM     20  H   UNL     1     -24.231  12.644  11.293  1.00  0.00     0.043 H 
ATOM     21  H   UNL     1     -24.839  13.971  12.285  1.00  0.00     0.043 H 
BRANCH  19  22
ATOM     22  N   UNL     1     -24.218  12.271  13.341  1.00  0.00    -0.330 NA
ATOM     23  H   UNL     1     -23.859  11.349  13.102  1.00  0.00     0.118 HD
ATOM     24  H   UNL     1     -23.419  12.834  13.630  1.00  0.00     0.118 HD
ENDBRANCH  19  22
ENDBRANCH   1  19
TORSDOF 3
ENDMDL
MODEL 3
REMARK VINA RESULT:      -4.5     15.810     17.328
REMARK SMILES NCCc1c[nH]c2c(F)cccc12
REMARK SMILES IDX 3 1 4 4 11 5 12 6 10 7 13 9 8 11 7 13 9 14 6 15 5 16 2 19
REMARK SMILES IDX 1 22
REMARK H PARENT 3 2 3 3 11 8 12 10 10 12 6 17 5 18 2 20 2 21 1 23 1 24
REMARK Flexibility Score: inf
ROOT
ATOM      1  C   UNL     1     -24.136  -2.541  17.022  1.00  0.00    -0.013 C 
ATOM      2  H   UNL     1     -23.151  -2.999  16.869  1.00  0.00     0.033 H 
ATOM      3  H   UNL     1     -23.948  -1.468  17.159  1.00  0.00     0.033 H 
ENDROOT
BRANCH   1   4
ATOM      4  C   UNL     1     -24.740  -3.113  18.268  1.00  0.00    -0.021 A 
ATOM      5  C   UNL     1     -24.805  -0.860  21.371  1.00  0.00    -0.059 A 
ATOM      6  C   UNL     1     -24.525  -1.185  20.036  1.00  0.00    -0.052 A 
ATOM      7  C   UNL     1     -25.423  -1.784  22.210  1.00  0.00    -0.024 A 
ATOM      8  H   UNL     1     -24.535   0.121  21.752  1.00  0.00     0.062 H 
ATOM      9  C   UNL     1     -24.872  -2.460  19.537  1.00  0.00     0.006 A 
ATOM     10  H   UNL     1     -24.041  -0.457  19.392  1.00  0.00     0.063 H 
ATOM     11  C   UNL     1     -25.771  -3.044  21.732  1.00  0.00     0.147 A 
ATOM     12  H   UNL     1     -25.638  -1.531  23.244  1.00  0.00     0.065 H 
ATOM     13  C   UNL     1     -25.490  -3.362  20.404  1.00  0.00     0.082 A 
ATOM     14  F   UNL     1     -26.364  -3.932  22.542  1.00  0.00    -0.205 F 
ATOM     15  N   UNL     1     -25.723  -4.516  19.699  1.00  0.00    -0.359 N 
ATOM     16  C   UNL     1     -25.283  -4.376  18.411  1.00  0.00     0.005 A 
ATOM     17  H   UNL     1     -26.154  -5.344  20.088  1.00  0.00     0.166 HD
ATOM     18  H   UNL     1     -25.378  -5.190  17.704  1.00  0.00     0.082 H 
ENDBRANCH   1   4
BRANCH   1  19
ATOM     19  C   UNL     1     -24.980  -2.771  15.760  1.00  0.00    -0.004 C 
ATOM     20  H   UNL     1     -24.491  -3.534  15.145  1.00  0.00     0.043 H 
ATOM     21  H   UNL     1     -25.973  -3.153  16.026  1.00  0.00     0.043 H 
BRANCH  19  22
ATOM     22  N   UNL     1     -25.138  -1.566  14.943  1.00  0.00    -0.330 NA
ATOM     23  H   UNL     1     -24.709  -0.770  15.411  1.00  0.00     0.118 HD
ATOM     24  H   UNL     1     -24.647  -1.688  14.059  1.00  0.00     0.118 HD
ENDBRANCH  19  22
ENDBRANCH   1  19
TORSDOF 3
ENDMDL
