./dock_file/liganddock202312151433/7Fluorotryptamine_PROamberH_GPCR5A_AF_selefeatureTOP200_color/7Fluorotryptamine_PROamberH_GPCR5A_AF_selefeatureTOP200_color_out_16.pdbqt
 OpenBabel12152314333D

 24 25  0  0  0  0  0  0  0  0999 V2000
  -25.9980    6.6630   26.8900 C   0  0  0  0  0  0  0  0  0  0  0  0
  -26.7960    7.3560   26.5940 H   0  0  0  0  0  0  0  0  0  0  0  0
  -25.5650    7.0800   27.8080 H   0  0  0  0  0  0  0  0  0  0  0  0
  -24.9640    6.6340   25.8070 C   0  0  0  0  0  0  0  0  0  0  0  0
  -21.6500    8.4310   26.5110 C   0  0  0  0  0  0  0  0  0  0  0  0
  -22.9470    7.9850   26.8040 C   0  0  0  0  0  0  0  0  0  0  0  0
  -21.0600    8.1380   25.2840 C   0  0  0  0  0  0  0  0  0  0  0  0
  -21.1020    9.0120   27.2490 H   0  0  0  0  0  0  0  0  0  0  0  0
  -23.6620    7.2320   25.8470 C   0  0  0  0  0  0  0  0  0  0  0  0
  -23.3960    8.2220   27.7640 H   0  0  0  0  0  0  0  0  0  0  0  0
  -21.7540    7.3970   24.3310 C   0  0  0  0  0  0  0  0  0  0  0  0
  -20.0560    8.4850   25.0590 H   0  0  0  0  0  0  0  0  0  0  0  0
  -23.0420    6.9560   24.6280 C   0  0  0  0  0  0  0  0  0  0  0  0
  -21.1850    7.1180   23.1510 F   0  0  0  0  0  0  0  0  0  0  0  0
  -23.9260    6.2250   23.8740 N   0  0  0  0  0  0  0  0  0  0  0  0
  -25.0820    6.0180   24.5760 C   0  0  0  0  0  0  0  0  0  0  0  0
  -23.7390    5.8960   22.9360 H   0  0  0  0  0  0  0  0  0  0  0  0
  -25.9010    5.4630   24.1370 H   0  0  0  0  0  0  0  0  0  0  0  0
  -26.6300    5.2940   27.1820 C   0  0  0  0  0  0  0  0  0  0  0  0
  -27.4810    5.4370   27.8570 H   0  0  0  0  0  0  0  0  0  0  0  0
  -27.0160    4.8430   26.2610 H   0  0  0  0  0  0  0  0  0  0  0  0
  -25.7040    4.3540   27.8190 N   0  0  0  0  0  0  0  0  0  0  0  0
  -25.2530    3.7780   27.1100 H   0  0  0  0  0  0  0  0  0  0  0  0
  -24.9660    4.8720   28.2920 H   0  0  0  0  0  0  0  0  0  0  0  0
  1 19  1  0  0  0  0
  1  3  1  0  0  0  0
  2  1  1  0  0  0  0
  4  9  1  0  0  0  0
  4  1  1  0  0  0  0
  5  6  1  0  0  0  0
  5  8  1  0  0  0  0
  6 10  1  0  0  0  0
  7  5  2  0  0  0  0
  9  6  2  0  0  0  0
 11 13  2  0  0  0  0
 11  7  1  0  0  0  0
 12  7  1  0  0  0  0
 13  9  1  0  0  0  0
 14 11  1  0  0  0  0
 15 16  1  0  0  0  0
 15 13  1  0  0  0  0
 16  4  2  0  0  0  0
 17 15  1  0  0  0  0
 18 16  1  0  0  0  0
 19 22  1  0  0  0  0
 19 20  1  0  0  0  0
 21 19  1  0  0  0  0
 22 24  1  0  0  0  0
 23 22  1  0  0  0  0
M  END
>  <MODEL>
1

>  <REMARK>
 VINA RESULT:      -4.9      0.000      0.000
 SMILES NCCc1c[nH]c2c(F)cccc12
 SMILES IDX 3 1 4 4 11 5 12 6 10 7 13 9 8 11 7 13 9 14 6 15 5 16 2 19
 SMILES IDX 1 22
 H PARENT 3 2 3 3 11 8 12 10 10 12 6 17 5 18 2 20 2 21 1 23 1 24
 Flexibility Score: inf

>  <TORSDO>
F 3

$$$$
./dock_file/liganddock202312151433/7Fluorotryptamine_PROamberH_GPCR5A_AF_selefeatureTOP200_color/7Fluorotryptamine_PROamberH_GPCR5A_AF_selefeatureTOP200_color_out_16.pdbqt
 OpenBabel12152314333D

 24 25  0  0  0  0  0  0  0  0999 V2000
  -21.2620    8.2570   26.1700 C   0  0  0  0  0  0  0  0  0  0  0  0
  -20.2500    8.5520   25.8630 H   0  0  0  0  0  0  0  0  0  0  0  0
  -21.1270    7.4680   26.9210 H   0  0  0  0  0  0  0  0  0  0  0  0
  -21.9810    7.7060   24.9780 C   0  0  0  0  0  0  0  0  0  0  0  0
  -25.4570    6.2010   25.5770 C   0  0  0  0  0  0  0  0  0  0  0  0
  -24.2570    6.8260   25.9450 C   0  0  0  0  0  0  0  0  0  0  0  0
  -25.6960    5.8500   24.2510 C   0  0  0  0  0  0  0  0  0  0  0  0
  -26.2060    5.9900   26.3370 H   0  0  0  0  0  0  0  0  0  0  0  0
  -23.2810    7.1010   24.9620 C   0  0  0  0  0  0  0  0  0  0  0  0
  -24.0820    7.0930   26.9830 H   0  0  0  0  0  0  0  0  0  0  0  0
  -24.7430    6.1150   23.2720 C   0  0  0  0  0  0  0  0  0  0  0  0
  -26.6260    5.3660   23.9690 H   0  0  0  0  0  0  0  0  0  0  0  0
  -23.5510    6.7360   23.6430 C   0  0  0  0  0  0  0  0  0  0  0  0
  -24.9740    5.7750   21.9970 F   0  0  0  0  0  0  0  0  0  0  0  0
  -22.4660    7.0990   22.8850 N   0  0  0  0  0  0  0  0  0  0  0  0
  -21.5180    7.6900   23.6760 C   0  0  0  0  0  0  0  0  0  0  0  0
  -22.3880    6.9420   21.8890 H   0  0  0  0  0  0  0  0  0  0  0  0
  -20.5860    8.0380   23.2520 H   0  0  0  0  0  0  0  0  0  0  0  0
  -21.9510    9.4740   26.8040 C   0  0  0  0  0  0  0  0  0  0  0  0
  -22.2750   10.1500   26.0050 H   0  0  0  0  0  0  0  0  0  0  0  0
  -22.8470    9.1660   27.3540 H   0  0  0  0  0  0  0  0  0  0  0  0
  -21.0770   10.2300   27.7050 N   0  0  0  0  0  0  0  0  0  0  0  0
  -20.2380    9.6900   27.9070 H   0  0  0  0  0  0  0  0  0  0  0  0
  -20.7740   11.0870   27.2450 H   0  0  0  0  0  0  0  0  0  0  0  0
  1 19  1  0  0  0  0
  1  3  1  0  0  0  0
  2  1  1  0  0  0  0
  4  1  1  0  0  0  0
  5  6  1  0  0  0  0
  5  8  1  0  0  0  0
  6 10  1  0  0  0  0
  7  5  2  0  0  0  0
  9  4  1  0  0  0  0
  9  6  2  0  0  0  0
 11 13  2  0  0  0  0
 11  7  1  0  0  0  0
 12  7  1  0  0  0  0
 13  9  1  0  0  0  0
 14 11  1  0  0  0  0
 15 13  1  0  0  0  0
 15 16  1  0  0  0  0
 16  4  2  0  0  0  0
 17 15  1  0  0  0  0
 18 16  1  0  0  0  0
 19 21  1  0  0  0  0
 19 22  1  0  0  0  0
 20 19  1  0  0  0  0
 22 23  1  0  0  0  0
 24 22  1  0  0  0  0
M  END
>  <REMARK>
 VINA RESULT:      -4.7      2.439      4.254
 SMILES NCCc1c[nH]c2c(F)cccc12
 SMILES IDX 3 1 4 4 11 5 12 6 10 7 13 9 8 11 7 13 9 14 6 15 5 16 2 19
 SMILES IDX 1 22
 H PARENT 3 2 3 3 11 8 12 10 10 12 6 17 5 18 2 20 2 21 1 23 1 24
 Flexibility Score: inf

>  <TORSDO>
F 3

$$$$
./dock_file/liganddock202312151433/7Fluorotryptamine_PROamberH_GPCR5A_AF_selefeatureTOP200_color/7Fluorotryptamine_PROamberH_GPCR5A_AF_selefeatureTOP200_color_out_16.pdbqt
 OpenBabel12152314333D

 24 25  0  0  0  0  0  0  0  0999 V2000
  -24.7170    7.4540   23.6090 C   0  0  0  0  0  0  0  0  0  0  0  0
  -25.2120    8.4150   23.7980 H   0  0  0  0  0  0  0  0  0  0  0  0
  -25.2500    6.7180   24.2250 H   0  0  0  0  0  0  0  0  0  0  0  0
  -23.2920    7.5560   24.0590 C   0  0  0  0  0  0  0  0  0  0  0  0
  -22.6770    8.7140   27.6630 C   0  0  0  0  0  0  0  0  0  0  0  0
  -23.4550    8.3740   26.5470 C   0  0  0  0  0  0  0  0  0  0  0  0
  -21.2870    8.6490   27.6030 C   0  0  0  0  0  0  0  0  0  0  0  0
  -23.1640    9.0320   28.5810 H   0  0  0  0  0  0  0  0  0  0  0  0
  -22.8260    7.9620   25.3520 C   0  0  0  0  0  0  0  0  0  0  0  0
  -24.5380    8.4310   26.6060 H   0  0  0  0  0  0  0  0  0  0  0  0
  -20.6530    8.2450   26.4310 C   0  0  0  0  0  0  0  0  0  0  0  0
  -20.6860    8.9130   28.4670 H   0  0  0  0  0  0  0  0  0  0  0  0
  -21.4320    7.9080   25.3260 C   0  0  0  0  0  0  0  0  0  0  0  0
  -19.3160    8.1840   26.3760 F   0  0  0  0  0  0  0  0  0  0  0  0
  -21.0610    7.4900   24.0720 N   0  0  0  0  0  0  0  0  0  0  0  0
  -22.1710    7.2670   23.3040 C   0  0  0  0  0  0  0  0  0  0  0  0
  -20.1030    7.3710   23.7720 H   0  0  0  0  0  0  0  0  0  0  0  0
  -22.0740    6.9360   22.2780 H   0  0  0  0  0  0  0  0  0  0  0  0
  -24.8760    7.1090   22.1210 C   0  0  0  0  0  0  0  0  0  0  0  0
  -25.6620    7.7430   21.6960 H   0  0  0  0  0  0  0  0  0  0  0  0
  -23.9510    7.3270   21.5750 H   0  0  0  0  0  0  0  0  0  0  0  0
  -25.2480    5.7120   21.8880 N   0  0  0  0  0  0  0  0  0  0  0  0
  -25.5370    5.5870   20.9200 H   0  0  0  0  0  0  0  0  0  0  0  0
  -24.4360    5.1150   22.0330 H   0  0  0  0  0  0  0  0  0  0  0  0
  1  2  1  0  0  0  0
  1  4  1  0  0  0  0
  1  3  1  0  0  0  0
  4  9  1  0  0  0  0
  5  8  1  0  0  0  0
  6 10  1  0  0  0  0
  6  5  2  0  0  0  0
  7  5  1  0  0  0  0
  7 12  1  0  0  0  0
  9  6  1  0  0  0  0
 11  7  2  0  0  0  0
 13  9  2  0  0  0  0
 13 11  1  0  0  0  0
 14 11  1  0  0  0  0
 15 13  1  0  0  0  0
 16  4  2  0  0  0  0
 16 15  1  0  0  0  0
 17 15  1  0  0  0  0
 18 16  1  0  0  0  0
 19  1  1  0  0  0  0
 20 19  1  0  0  0  0
 21 19  1  0  0  0  0
 22 24  1  0  0  0  0
 22 19  1  0  0  0  0
 23 22  1  0  0  0  0
M  END
>  <REMARK>
 VINA RESULT:      -4.6      2.795      3.350
 SMILES NCCc1c[nH]c2c(F)cccc12
 SMILES IDX 3 1 4 4 11 5 12 6 10 7 13 9 8 11 7 13 9 14 6 15 5 16 2 19
 SMILES IDX 1 22
 H PARENT 3 2 3 3 11 8 12 10 10 12 6 17 5 18 2 20 2 21 1 23 1 24
 Flexibility Score: inf

>  <TORSDO>
F 3

$$$$
