MODEL 1
REMARK VINA RESULT:      -4.5      0.000      0.000
REMARK SMILES NCCc1c[nH]c2c(F)cccc12
REMARK SMILES IDX 3 1 4 4 11 5 12 6 10 7 13 9 8 11 7 13 9 14 6 15 5 16 2 19
REMARK SMILES IDX 1 22
REMARK H PARENT 3 2 3 3 11 8 12 10 10 12 6 17 5 18 2 20 2 21 1 23 1 24
REMARK Flexibility Score: inf
ROOT
ATOM      1  C   UNL     1      15.166  12.922 -17.554  1.00  0.00    -0.013 C 
ATOM      2  H   UNL     1      15.686  13.573 -16.839  1.00  0.00     0.033 H 
ATOM      3  H   UNL     1      15.948  12.312 -18.024  1.00  0.00     0.033 H 
ENDROOT
BRANCH   1   4
ATOM      4  C   UNL     1      14.503  13.781 -18.586  1.00  0.00    -0.021 A 
ATOM      5  C   UNL     1      16.747  15.288 -21.307  1.00  0.00    -0.059 A 
ATOM      6  C   UNL     1      16.464  14.529 -20.162  1.00  0.00    -0.052 A 
ATOM      7  C   UNL     1      15.730  15.958 -21.981  1.00  0.00    -0.024 A 
ATOM      8  H   UNL     1      17.770  15.353 -21.668  1.00  0.00     0.062 H 
ATOM      9  C   UNL     1      15.136  14.443 -19.689  1.00  0.00     0.006 A 
ATOM     10  H   UNL     1      17.266  14.012 -19.644  1.00  0.00     0.063 H 
ATOM     11  C   UNL     1      14.417  15.883 -21.526  1.00  0.00     0.147 A 
ATOM     12  H   UNL     1      15.951  16.546 -22.867  1.00  0.00     0.065 H 
ATOM     13  C   UNL     1      14.141  15.126 -20.388  1.00  0.00     0.082 A 
ATOM     14  F   UNL     1      13.440  16.530 -22.176  1.00  0.00    -0.205 F 
ATOM     15  N   UNL     1      12.952  14.896 -19.741  1.00  0.00    -0.359 N 
ATOM     16  C   UNL     1      13.157  14.082 -18.660  1.00  0.00     0.005 A 
ATOM     17  H   UNL     1      12.063  15.282 -20.029  1.00  0.00     0.166 HD
ATOM     18  H   UNL     1      12.331  13.795 -18.023  1.00  0.00     0.082 H 
ENDBRANCH   1   4
BRANCH   1  19
ATOM     19  C   UNL     1      14.194  12.023 -16.775  1.00  0.00    -0.004 C 
ATOM     20  H   UNL     1      13.170  12.354 -16.980  1.00  0.00     0.043 H 
ATOM     21  H   UNL     1      14.276  10.984 -17.114  1.00  0.00     0.043 H 
BRANCH  19  22
ATOM     22  N   UNL     1      14.401  12.068 -15.326  1.00  0.00    -0.330 NA
ATOM     23  H   UNL     1      13.635  12.571 -14.882  1.00  0.00     0.118 HD
ATOM     24  H   UNL     1      14.388  11.120 -14.951  1.00  0.00     0.118 HD
ENDBRANCH  19  22
ENDBRANCH   1  19
TORSDOF 3
ENDMDL
MODEL 2
REMARK VINA RESULT:      -4.3      3.965      5.412
REMARK SMILES NCCc1c[nH]c2c(F)cccc12
REMARK SMILES IDX 3 1 4 4 11 5 12 6 10 7 13 9 8 11 7 13 9 14 6 15 5 16 2 19
REMARK SMILES IDX 1 22
REMARK H PARENT 3 2 3 3 11 8 12 10 10 12 6 17 5 18 2 20 2 21 1 23 1 24
REMARK Flexibility Score: inf
ROOT
ATOM      1  C   UNL     1      11.141  11.005 -21.067  1.00  0.00    -0.013 C 
ATOM      2  H   UNL     1      11.456  10.517 -21.999  1.00  0.00     0.033 H 
ATOM      3  H   UNL     1      11.058  12.074 -21.303  1.00  0.00     0.033 H 
ENDROOT
BRANCH   1   4
ATOM      4  C   UNL     1      12.206  10.794 -20.035  1.00  0.00    -0.021 A 
ATOM      5  C   UNL     1      13.367  13.876 -18.069  1.00  0.00    -0.059 A 
ATOM      6  C   UNL     1      12.606  13.182 -19.021  1.00  0.00    -0.052 A 
ATOM      7  C   UNL     1      14.302  13.206 -17.285  1.00  0.00    -0.024 A 
ATOM      8  H   UNL     1      13.224  14.946 -17.945  1.00  0.00     0.062 H 
ATOM      9  C   UNL     1      12.789  11.791 -19.186  1.00  0.00     0.006 A 
ATOM     10  H   UNL     1      11.881  13.716 -19.628  1.00  0.00     0.063 H 
ATOM     11  C   UNL     1      14.493  11.835 -17.437  1.00  0.00     0.147 A 
ATOM     12  H   UNL     1      14.891  13.745 -16.549  1.00  0.00     0.065 H 
ATOM     13  C   UNL     1      13.734  11.150 -18.385  1.00  0.00     0.082 A 
ATOM     14  F   UNL     1      15.395  11.193 -16.682  1.00  0.00    -0.205 F 
ATOM     15  N   UNL     1      13.732   9.822 -18.729  1.00  0.00    -0.359 N 
ATOM     16  C   UNL     1      12.811   9.594 -19.715  1.00  0.00     0.005 A 
ATOM     17  H   UNL     1      14.332   9.124 -18.309  1.00  0.00     0.166 HD
ATOM     18  H   UNL     1      12.672   8.600 -20.120  1.00  0.00     0.082 H 
ENDBRANCH   1   4
BRANCH   1  19
ATOM     19  C   UNL     1       9.768  10.447 -20.666  1.00  0.00    -0.004 C 
ATOM     20  H   UNL     1       9.051  10.675 -21.463  1.00  0.00     0.043 H 
ATOM     21  H   UNL     1       9.810   9.356 -20.568  1.00  0.00     0.043 H 
BRANCH  19  22
ATOM     22  N   UNL     1       9.253  11.018 -19.420  1.00  0.00    -0.330 NA
ATOM     23  H   UNL     1       8.529  11.702 -19.625  1.00  0.00     0.118 HD
ATOM     24  H   UNL     1       8.817  10.283 -18.865  1.00  0.00     0.118 HD
ENDBRANCH  19  22
ENDBRANCH   1  19
TORSDOF 3
ENDMDL
MODEL 3
REMARK VINA RESULT:      -4.1      1.631      1.811
REMARK SMILES NCCc1c[nH]c2c(F)cccc12
REMARK SMILES IDX 3 1 4 4 11 5 12 6 10 7 13 9 8 11 7 13 9 14 6 15 5 16 2 19
REMARK SMILES IDX 1 22
REMARK H PARENT 3 2 3 3 11 8 12 10 10 12 6 17 5 18 2 20 2 21 1 23 1 24
REMARK Flexibility Score: inf
ROOT
ATOM      1  C   UNL     1      14.038  12.169 -17.246  1.00  0.00    -0.013 C 
ATOM      2  H   UNL     1      13.189  11.934 -16.592  1.00  0.00     0.033 H 
ATOM      3  H   UNL     1      14.569  12.997 -16.761  1.00  0.00     0.033 H 
ENDROOT
BRANCH   1   4
ATOM      4  C   UNL     1      13.508  12.614 -18.574  1.00  0.00    -0.021 A 
ATOM      5  C   UNL     1      15.423  15.410 -20.371  1.00  0.00    -0.059 A 
ATOM      6  C   UNL     1      15.166  14.502 -19.333  1.00  0.00    -0.052 A 
ATOM      7  C   UNL     1      14.593  15.463 -21.487  1.00  0.00    -0.024 A 
ATOM      8  H   UNL     1      16.278  16.077 -20.300  1.00  0.00     0.062 H 
ATOM      9  C   UNL     1      14.056  13.634 -19.420  1.00  0.00     0.006 A 
ATOM     10  H   UNL     1      15.820  14.472 -18.466  1.00  0.00     0.063 H 
ATOM     11  C   UNL     1      13.495  14.613 -21.586  1.00  0.00     0.147 A 
ATOM     12  H   UNL     1      14.793  16.166 -22.289  1.00  0.00     0.065 H 
ATOM     13  C   UNL     1      13.244  13.712 -20.552  1.00  0.00     0.082 A 
ATOM     14  F   UNL     1      12.697  14.666 -22.661  1.00  0.00    -0.205 F 
ATOM     15  N   UNL     1      12.243  12.785 -20.405  1.00  0.00    -0.359 N 
ATOM     16  C   UNL     1      12.396  12.113 -19.223  1.00  0.00     0.005 A 
ATOM     17  H   UNL     1      11.504  12.634 -21.079  1.00  0.00     0.166 HD
ATOM     18  H   UNL     1      11.693  11.343 -18.932  1.00  0.00     0.082 H 
ENDBRANCH   1   4
BRANCH   1  19
ATOM     19  C   UNL     1      14.947  10.934 -17.323  1.00  0.00    -0.004 C 
ATOM     20  H   UNL     1      14.657  10.235 -16.530  1.00  0.00     0.043 H 
ATOM     21  H   UNL     1      14.813  10.415 -18.279  1.00  0.00     0.043 H 
BRANCH  19  22
ATOM     22  N   UNL     1      16.367  11.249 -17.148  1.00  0.00    -0.330 NA
ATOM     23  H   UNL     1      16.894  10.394 -16.982  1.00  0.00     0.118 HD
ATOM     24  H   UNL     1      16.732  11.660 -18.006  1.00  0.00     0.118 HD
ENDBRANCH  19  22
ENDBRANCH   1  19
TORSDOF 3
ENDMDL
