MODEL 1
REMARK VINA RESULT:      -4.9      0.000      0.000
REMARK SMILES NCCc1c[nH]c2c(F)cccc12
REMARK SMILES IDX 3 1 4 4 11 5 12 6 10 7 13 9 8 11 7 13 9 14 6 15 5 16 2 19
REMARK SMILES IDX 1 22
REMARK H PARENT 3 2 3 3 11 8 12 10 10 12 6 17 5 18 2 20 2 21 1 23 1 24
REMARK Flexibility Score: inf
ROOT
ATOM      1  C   UNL     1      -0.703 -14.039  -7.429  1.00  0.00    -0.013 C 
ATOM      2  H   UNL     1      -1.388 -14.872  -7.224  1.00  0.00     0.033 H 
ATOM      3  H   UNL     1      -0.828 -13.805  -8.494  1.00  0.00     0.033 H 
ENDROOT
BRANCH   1   4
ATOM      4  C   UNL     1       0.699 -14.499  -7.171  1.00  0.00    -0.021 A 
ATOM      5  C   UNL     1       3.390 -13.381  -9.665  1.00  0.00    -0.059 A 
ATOM      6  C   UNL     1       2.091 -13.466  -9.141  1.00  0.00    -0.052 A 
ATOM      7  C   UNL     1       4.452 -14.022  -9.032  1.00  0.00    -0.024 A 
ATOM      8  H   UNL     1       3.565 -12.812 -10.574  1.00  0.00     0.062 H 
ATOM      9  C   UNL     1       1.858 -14.206  -7.961  1.00  0.00     0.006 A 
ATOM     10  H   UNL     1       1.271 -12.963  -9.645  1.00  0.00     0.063 H 
ATOM     11  C   UNL     1       4.236 -14.755  -7.868  1.00  0.00     0.147 A 
ATOM     12  H   UNL     1       5.456 -13.956  -9.439  1.00  0.00     0.065 H 
ATOM     13  C   UNL     1       2.944 -14.835  -7.352  1.00  0.00     0.082 A 
ATOM     14  F   UNL     1       5.260 -15.371  -7.261  1.00  0.00    -0.205 F 
ATOM     15  N   UNL     1       2.471 -15.486  -6.240  1.00  0.00    -0.359 N 
ATOM     16  C   UNL     1       1.123 -15.284  -6.116  1.00  0.00     0.005 A 
ATOM     17  H   UNL     1       3.045 -16.035  -5.614  1.00  0.00     0.166 HD
ATOM     18  H   UNL     1       0.572 -15.728  -5.298  1.00  0.00     0.082 H 
ENDBRANCH   1   4
BRANCH   1  19
ATOM     19  C   UNL     1      -1.131 -12.838  -6.573  1.00  0.00    -0.004 C 
ATOM     20  H   UNL     1      -2.225 -12.815  -6.521  1.00  0.00     0.043 H 
ATOM     21  H   UNL     1      -0.758 -12.944  -5.547  1.00  0.00     0.043 H 
BRANCH  19  22
ATOM     22  N   UNL     1      -0.679 -11.553  -7.112  1.00  0.00    -0.330 NA
ATOM     23  H   UNL     1       0.150 -11.690  -7.687  1.00  0.00     0.118 HD
ATOM     24  H   UNL     1      -1.399 -11.168  -7.721  1.00  0.00     0.118 HD
ENDBRANCH  19  22
ENDBRANCH   1  19
TORSDOF 3
ENDMDL
MODEL 2
REMARK VINA RESULT:      -4.7      1.363      2.500
REMARK SMILES NCCc1c[nH]c2c(F)cccc12
REMARK SMILES IDX 3 1 4 4 11 5 12 6 10 7 13 9 8 11 7 13 9 14 6 15 5 16 2 19
REMARK SMILES IDX 1 22
REMARK H PARENT 3 2 3 3 11 8 12 10 10 12 6 17 5 18 2 20 2 21 1 23 1 24
REMARK Flexibility Score: inf
ROOT
ATOM      1  C   UNL     1      -0.354 -13.896  -7.966  1.00  0.00    -0.013 C 
ATOM      2  H   UNL     1      -0.729 -14.914  -7.801  1.00  0.00     0.033 H 
ATOM      3  H   UNL     1      -0.751 -13.586  -8.941  1.00  0.00     0.033 H 
ENDROOT
BRANCH   1   4
ATOM      4  C   UNL     1       1.142 -13.942  -8.018  1.00  0.00    -0.021 A 
ATOM      5  C   UNL     1       2.925 -15.932  -5.266  1.00  0.00    -0.059 A 
ATOM      6  C   UNL     1       1.817 -15.404  -5.945  1.00  0.00    -0.052 A 
ATOM      7  C   UNL     1       4.217 -15.690  -5.723  1.00  0.00    -0.024 A 
ATOM      8  H   UNL     1       2.770 -16.533  -4.374  1.00  0.00     0.062 H 
ATOM      9  C   UNL     1       2.014 -14.620  -7.103  1.00  0.00     0.006 A 
ATOM     10  H   UNL     1       0.814 -15.598  -5.577  1.00  0.00     0.063 H 
ATOM     11  C   UNL     1       4.426 -14.918  -6.863  1.00  0.00     0.147 A 
ATOM     12  H   UNL     1       5.074 -16.098  -5.195  1.00  0.00     0.065 H 
ATOM     13  C   UNL     1       3.321 -14.397  -7.535  1.00  0.00     0.082 A 
ATOM     14  F   UNL     1       5.671 -14.686  -7.301  1.00  0.00    -0.205 F 
ATOM     15  N   UNL     1       3.255 -13.615  -8.661  1.00  0.00    -0.359 N 
ATOM     16  C   UNL     1       1.949 -13.342  -8.966  1.00  0.00     0.005 A 
ATOM     17  H   UNL     1       4.061 -13.292  -9.178  1.00  0.00     0.166 HD
ATOM     18  H   UNL     1       1.700 -12.731  -9.823  1.00  0.00     0.082 H 
ENDBRANCH   1   4
BRANCH   1  19
ATOM     19  C   UNL     1      -0.909 -12.988  -6.859  1.00  0.00    -0.004 C 
ATOM     20  H   UNL     1      -1.994 -13.132  -6.799  1.00  0.00     0.043 H 
ATOM     21  H   UNL     1      -0.489 -13.267  -5.886  1.00  0.00     0.043 H 
BRANCH  19  22
ATOM     22  N   UNL     1      -0.656 -11.565  -7.097  1.00  0.00    -0.330 NA
ATOM     23  H   UNL     1       0.234 -11.447  -7.575  1.00  0.00     0.118 HD
ATOM     24  H   UNL     1      -1.376 -11.191  -7.714  1.00  0.00     0.118 HD
ENDBRANCH  19  22
ENDBRANCH   1  19
TORSDOF 3
ENDMDL
MODEL 3
REMARK VINA RESULT:      -4.7      2.338      3.710
REMARK SMILES NCCc1c[nH]c2c(F)cccc12
REMARK SMILES IDX 3 1 4 4 11 5 12 6 10 7 13 9 8 11 7 13 9 14 6 15 5 16 2 19
REMARK SMILES IDX 1 22
REMARK H PARENT 3 2 3 3 11 8 12 10 10 12 6 17 5 18 2 20 2 21 1 23 1 24
REMARK Flexibility Score: inf
ROOT
ATOM      1  C   UNL     1       2.480 -13.197  -8.839  1.00  0.00    -0.013 C 
ATOM      2  H   UNL     1       2.260 -12.668  -9.775  1.00  0.00     0.033 H 
ATOM      3  H   UNL     1       2.662 -12.415  -8.090  1.00  0.00     0.033 H 
ENDROOT
BRANCH   1   4
ATOM      4  C   UNL     1       3.720 -14.014  -9.032  1.00  0.00    -0.021 A 
ATOM      5  C   UNL     1       5.599 -15.110  -5.873  1.00  0.00    -0.059 A 
ATOM      6  C   UNL     1       4.578 -14.474  -6.595  1.00  0.00    -0.052 A 
ATOM      7  C   UNL     1       6.611 -15.799  -6.536  1.00  0.00    -0.024 A 
ATOM      8  H   UNL     1       5.597 -15.063  -4.787  1.00  0.00     0.062 H 
ATOM      9  C   UNL     1       4.576 -14.532  -8.006  1.00  0.00     0.006 A 
ATOM     10  H   UNL     1       3.795 -13.938  -6.066  1.00  0.00     0.063 H 
ATOM     11  C   UNL     1       6.622 -15.864  -7.926  1.00  0.00     0.147 A 
ATOM     12  H   UNL     1       7.401 -16.290  -5.975  1.00  0.00     0.065 H 
ATOM     13  C   UNL     1       5.605 -15.230  -8.638  1.00  0.00     0.082 A 
ATOM     14  F   UNL     1       7.598 -16.526  -8.562  1.00  0.00    -0.205 F 
ATOM     15  N   UNL     1       5.391 -15.141  -9.991  1.00  0.00    -0.359 N 
ATOM     16  C   UNL     1       4.255 -14.419 -10.240  1.00  0.00     0.005 A 
ATOM     17  H   UNL     1       5.994 -15.551 -10.691  1.00  0.00     0.166 HD
ATOM     18  H   UNL     1       3.929 -14.239 -11.255  1.00  0.00     0.082 H 
ENDBRANCH   1   4
BRANCH   1  19
ATOM     19  C   UNL     1       1.246 -14.023  -8.447  1.00  0.00    -0.004 C 
ATOM     20  H   UNL     1       1.507 -15.086  -8.491  1.00  0.00     0.043 H 
ATOM     21  H   UNL     1       0.947 -13.803  -7.416  1.00  0.00     0.043 H 
BRANCH  19  22
ATOM     22  N   UNL     1       0.099 -13.804  -9.332  1.00  0.00    -0.330 NA
ATOM     23  H   UNL     1      -0.370 -14.689  -9.516  1.00  0.00     0.118 HD
ATOM     24  H   UNL     1      -0.578 -13.202  -8.867  1.00  0.00     0.118 HD
ENDBRANCH  19  22
ENDBRANCH   1  19
TORSDOF 3
ENDMDL
