./dock_file/liganddock202312151433/7Fluorotryptamine_PROamberH_GPCR5A_AF_selefeatureTOP200_color/7Fluorotryptamine_PROamberH_GPCR5A_AF_selefeatureTOP200_color_out_1.pdbqt
 OpenBabel12152314333D

 24 25  0  0  0  0  0  0  0  0999 V2000
  -18.2420   11.7670   18.5180 C   0  0  0  0  0  0  0  0  0  0  0  0
  -18.0140   10.9180   19.1750 H   0  0  0  0  0  0  0  0  0  0  0  0
  -17.5410   11.6900   17.6760 H   0  0  0  0  0  0  0  0  0  0  0  0
  -17.9900   13.0360   19.2730 C   0  0  0  0  0  0  0  0  0  0  0  0
  -15.5350   15.5380   17.7150 C   0  0  0  0  0  0  0  0  0  0  0  0
  -16.2710   14.3460   17.7830 C   0  0  0  0  0  0  0  0  0  0  0  0
  -15.6340   16.4900   18.7270 C   0  0  0  0  0  0  0  0  0  0  0  0
  -14.8820   15.7170   16.8650 H   0  0  0  0  0  0  0  0  0  0  0  0
  -17.1200   14.1080   18.8860 C   0  0  0  0  0  0  0  0  0  0  0  0
  -16.1840   13.6110   16.9890 H   0  0  0  0  0  0  0  0  0  0  0  0
  -16.4660   16.2680   19.8210 C   0  0  0  0  0  0  0  0  0  0  0  0
  -15.0630   17.4110   18.6730 H   0  0  0  0  0  0  0  0  0  0  0  0
  -17.1960   15.0820   19.8820 C   0  0  0  0  0  0  0  0  0  0  0  0
  -16.5590   17.1850   20.7930 F   0  0  0  0  0  0  0  0  0  0  0  0
  -18.0710   14.6260   20.8370 N   0  0  0  0  0  0  0  0  0  0  0  0
  -18.5610   13.4000   20.4770 C   0  0  0  0  0  0  0  0  0  0  0  0
  -18.3060   15.1310   21.6810 H   0  0  0  0  0  0  0  0  0  0  0  0
  -19.2630   12.8790   21.1150 H   0  0  0  0  0  0  0  0  0  0  0  0
  -19.6850   11.6190   18.0150 C   0  0  0  0  0  0  0  0  0  0  0  0
  -19.8710   10.5630   17.7900 H   0  0  0  0  0  0  0  0  0  0  0  0
  -20.3960   11.9160   18.7950 H   0  0  0  0  0  0  0  0  0  0  0  0
  -19.9580   12.3930   16.8020 N   0  0  0  0  0  0  0  0  0  0  0  0
  -19.1640   12.9930   16.5880 H   0  0  0  0  0  0  0  0  0  0  0  0
  -20.0710   11.7590   16.0130 H   0  0  0  0  0  0  0  0  0  0  0  0
  1  2  1  0  0  0  0
  1  4  1  0  0  0  0
  3  1  1  0  0  0  0
  4 16  2  0  0  0  0
  5  6  2  0  0  0  0
  5  7  1  0  0  0  0
  6  9  1  0  0  0  0
  7 11  2  0  0  0  0
  8  5  1  0  0  0  0
  9  4  1  0  0  0  0
  9 13  2  0  0  0  0
 10  6  1  0  0  0  0
 11 13  1  0  0  0  0
 11 14  1  0  0  0  0
 12  7  1  0  0  0  0
 13 15  1  0  0  0  0
 15 17  1  0  0  0  0
 16 15  1  0  0  0  0
 16 18  1  0  0  0  0
 19  1  1  0  0  0  0
 19 21  1  0  0  0  0
 20 19  1  0  0  0  0
 22 19  1  0  0  0  0
 23 22  1  0  0  0  0
 24 22  1  0  0  0  0
M  END
>  <MODEL>
1

>  <REMARK>
 VINA RESULT:      -5.0      0.000      0.000
 SMILES NCCc1c[nH]c2c(F)cccc12
 SMILES IDX 3 1 4 4 11 5 12 6 10 7 13 9 8 11 7 13 9 14 6 15 5 16 2 19
 SMILES IDX 1 22
 H PARENT 3 2 3 3 11 8 12 10 10 12 6 17 5 18 2 20 2 21 1 23 1 24
 Flexibility Score: inf

>  <TORSDO>
F 3

$$$$
./dock_file/liganddock202312151433/7Fluorotryptamine_PROamberH_GPCR5A_AF_selefeatureTOP200_color/7Fluorotryptamine_PROamberH_GPCR5A_AF_selefeatureTOP200_color_out_1.pdbqt
 OpenBabel12152314333D

 24 25  0  0  0  0  0  0  0  0999 V2000
  -24.4990   12.4020   12.5880 C   0  0  0  0  0  0  0  0  0  0  0  0
  -24.6290   13.2320   13.2940 H   0  0  0  0  0  0  0  0  0  0  0  0
  -23.5790   12.6240   12.0320 H   0  0  0  0  0  0  0  0  0  0  0  0
  -25.6670   12.3870   11.6500 C   0  0  0  0  0  0  0  0  0  0  0  0
  -26.0160    9.3410    9.3450 C   0  0  0  0  0  0  0  0  0  0  0  0
  -25.4170   10.1250   10.3420 C   0  0  0  0  0  0  0  0  0  0  0  0
  -27.1780    9.7700    8.7090 C   0  0  0  0  0  0  0  0  0  0  0  0
  -25.5660    8.3920    9.0670 H   0  0  0  0  0  0  0  0  0  0  0  0
  -25.9980   11.3600   10.7060 C   0  0  0  0  0  0  0  0  0  0  0  0
  -24.5100    9.7800   10.8290 H   0  0  0  0  0  0  0  0  0  0  0  0
  -27.7610   10.9860    9.0570 C   0  0  0  0  0  0  0  0  0  0  0  0
  -27.6400    9.1630    7.9370 H   0  0  0  0  0  0  0  0  0  0  0  0
  -27.1620   11.7610   10.0490 C   0  0  0  0  0  0  0  0  0  0  0  0
  -28.8780   11.3970    8.4430 F   0  0  0  0  0  0  0  0  0  0  0  0
  -27.5270   12.9790   10.5660 N   0  0  0  0  0  0  0  0  0  0  0  0
  -26.6400   13.3620   11.5350 C   0  0  0  0  0  0  0  0  0  0  0  0
  -28.3330   13.5070   10.2630 H   0  0  0  0  0  0  0  0  0  0  0  0
  -26.7630   14.3040   12.0540 H   0  0  0  0  0  0  0  0  0  0  0  0
  -24.3290   11.1040   13.3900 C   0  0  0  0  0  0  0  0  0  0  0  0
  -25.0770   11.0850   14.1900 H   0  0  0  0  0  0  0  0  0  0  0  0
  -24.5120   10.2310   12.7520 H   0  0  0  0  0  0  0  0  0  0  0  0
  -23.0070   10.9740   14.0060 N   0  0  0  0  0  0  0  0  0  0  0  0
  -23.0970   10.5780   14.9390 H   0  0  0  0  0  0  0  0  0  0  0  0
  -22.4410   10.3250   13.4630 H   0  0  0  0  0  0  0  0  0  0  0  0
  1  2  1  0  0  0  0
  1 19  1  0  0  0  0
  3  1  1  0  0  0  0
  4  1  1  0  0  0  0
  5  6  2  0  0  0  0
  6  9  1  0  0  0  0
  6 10  1  0  0  0  0
  7 11  2  0  0  0  0
  7  5  1  0  0  0  0
  8  5  1  0  0  0  0
  9  4  1  0  0  0  0
 11 13  1  0  0  0  0
 12  7  1  0  0  0  0
 13 15  1  0  0  0  0
 13  9  2  0  0  0  0
 14 11  1  0  0  0  0
 15 16  1  0  0  0  0
 16  4  2  0  0  0  0
 16 18  1  0  0  0  0
 17 15  1  0  0  0  0
 19 22  1  0  0  0  0
 19 20  1  0  0  0  0
 21 19  1  0  0  0  0
 22 23  1  0  0  0  0
 24 22  1  0  0  0  0
M  END
>  <REMARK>
 VINA RESULT:      -5.0     10.522     13.070
 SMILES NCCc1c[nH]c2c(F)cccc12
 SMILES IDX 3 1 4 4 11 5 12 6 10 7 13 9 8 11 7 13 9 14 6 15 5 16 2 19
 SMILES IDX 1 22
 H PARENT 3 2 3 3 11 8 12 10 10 12 6 17 5 18 2 20 2 21 1 23 1 24
 Flexibility Score: inf

>  <TORSDO>
F 3

$$$$
./dock_file/liganddock202312151433/7Fluorotryptamine_PROamberH_GPCR5A_AF_selefeatureTOP200_color/7Fluorotryptamine_PROamberH_GPCR5A_AF_selefeatureTOP200_color_out_1.pdbqt
 OpenBabel12152314333D

 24 25  0  0  0  0  0  0  0  0999 V2000
  -24.8620   11.9900   12.6270 C   0  0  0  0  0  0  0  0  0  0  0  0
  -25.4650   12.5590   13.3470 H   0  0  0  0  0  0  0  0  0  0  0  0
  -24.1510   12.7090   12.2000 H   0  0  0  0  0  0  0  0  0  0  0  0
  -25.7670   11.4710   11.5520 C   0  0  0  0  0  0  0  0  0  0  0  0
  -28.1930   13.9740    9.9510 C   0  0  0  0  0  0  0  0  0  0  0  0
  -27.1790   13.5620   10.8290 C   0  0  0  0  0  0  0  0  0  0  0  0
  -28.7760   13.0690    9.0690 C   0  0  0  0  0  0  0  0  0  0  0  0
  -28.5250   15.0090    9.9630 H   0  0  0  0  0  0  0  0  0  0  0  0
  -26.7460   12.2180   10.8180 C   0  0  0  0  0  0  0  0  0  0  0  0
  -26.7330   14.2770   11.5130 H   0  0  0  0  0  0  0  0  0  0  0  0
  -28.3600   11.7400    9.0470 C   0  0  0  0  0  0  0  0  0  0  0  0
  -29.5620   13.3890    8.3910 H   0  0  0  0  0  0  0  0  0  0  0  0
  -27.3510   11.3370    9.9210 C   0  0  0  0  0  0  0  0  0  0  0  0
  -28.9240   10.8710    8.1980 F   0  0  0  0  0  0  0  0  0  0  0  0
  -26.7720   10.1050   10.1000 N   0  0  0  0  0  0  0  0  0  0  0  0
  -25.8120   10.1760   11.0730 C   0  0  0  0  0  0  0  0  0  0  0  0
  -27.0290    9.2750    9.5840 H   0  0  0  0  0  0  0  0  0  0  0  0
  -25.2490    9.2960   11.3560 H   0  0  0  0  0  0  0  0  0  0  0  0
  -24.1060   10.8910   13.3880 C   0  0  0  0  0  0  0  0  0  0  0  0
  -24.5660   10.7680   14.3740 H   0  0  0  0  0  0  0  0  0  0  0  0
  -24.1940    9.9320   12.8650 H   0  0  0  0  0  0  0  0  0  0  0  0
  -22.6870   11.1970   13.5860 N   0  0  0  0  0  0  0  0  0  0  0  0
  -22.4890   12.1430   13.2680 H   0  0  0  0  0  0  0  0  0  0  0  0
  -22.4690   11.1670   14.5800 H   0  0  0  0  0  0  0  0  0  0  0  0
  1  2  1  0  0  0  0
  1 19  1  0  0  0  0
  3  1  1  0  0  0  0
  4  1  1  0  0  0  0
  5  8  1  0  0  0  0
  5  6  2  0  0  0  0
  6 10  1  0  0  0  0
  7  5  1  0  0  0  0
  9  6  1  0  0  0  0
  9  4  1  0  0  0  0
 11  7  2  0  0  0  0
 11 13  1  0  0  0  0
 12  7  1  0  0  0  0
 13 15  1  0  0  0  0
 13  9  2  0  0  0  0
 14 11  1  0  0  0  0
 15 16  1  0  0  0  0
 16 18  1  0  0  0  0
 16  4  2  0  0  0  0
 17 15  1  0  0  0  0
 19 22  1  0  0  0  0
 19 20  1  0  0  0  0
 21 19  1  0  0  0  0
 22 24  1  0  0  0  0
 23 22  1  0  0  0  0
M  END
>  <REMARK>
 VINA RESULT:      -4.9     10.858     13.303
 SMILES NCCc1c[nH]c2c(F)cccc12
 SMILES IDX 3 1 4 4 11 5 12 6 10 7 13 9 8 11 7 13 9 14 6 15 5 16 2 19
 SMILES IDX 1 22
 H PARENT 3 2 3 3 11 8 12 10 10 12 6 17 5 18 2 20 2 21 1 23 1 24
 Flexibility Score: inf

>  <TORSDO>
F 3

$$$$
