./dock_file/liganddock202312151433/7Fluorotryptamine_PROamberH_GPCR5A_AF_selefeatureTOP200_color/7Fluorotryptamine_PROamberH_GPCR5A_AF_selefeatureTOP200_color_out_4.pdbqt
 OpenBabel12152314333D

 24 25  0  0  0  0  0  0  0  0999 V2000
  -24.0150   -1.1160   21.5230 C   0  0  0  0  0  0  0  0  0  0  0  0
  -24.5060   -0.6990   22.4120 H   0  0  0  0  0  0  0  0  0  0  0  0
  -23.6620   -0.2520   20.9450 H   0  0  0  0  0  0  0  0  0  0  0  0
  -25.0330   -1.8760   20.7290 C   0  0  0  0  0  0  0  0  0  0  0  0
  -24.1730   -2.6490   17.0720 C   0  0  0  0  0  0  0  0  0  0  0  0
  -23.9480   -2.1200   18.3520 C   0  0  0  0  0  0  0  0  0  0  0  0
  -25.3540   -3.3270   16.7830 C   0  0  0  0  0  0  0  0  0  0  0  0
  -23.4170   -2.5270   16.3010 H   0  0  0  0  0  0  0  0  0  0  0  0
  -24.9280   -2.2750   19.3560 C   0  0  0  0  0  0  0  0  0  0  0  0
  -23.0230   -1.5930   18.5640 H   0  0  0  0  0  0  0  0  0  0  0  0
  -26.3300   -3.4870   17.7640 C   0  0  0  0  0  0  0  0  0  0  0  0
  -25.5270   -3.7350   15.7920 H   0  0  0  0  0  0  0  0  0  0  0  0
  -26.1010   -2.9590   19.0340 C   0  0  0  0  0  0  0  0  0  0  0  0
  -27.4660   -4.1380   17.4830 F   0  0  0  0  0  0  0  0  0  0  0  0
  -26.8890   -2.9760   20.1580 N   0  0  0  0  0  0  0  0  0  0  0  0
  -26.2540   -2.3340   21.1860 C   0  0  0  0  0  0  0  0  0  0  0  0
  -27.8060   -3.4000   20.2040 H   0  0  0  0  0  0  0  0  0  0  0  0
  -26.7270   -2.2420   22.1540 H   0  0  0  0  0  0  0  0  0  0  0  0
  -22.8210   -1.9660   21.9800 C   0  0  0  0  0  0  0  0  0  0  0  0
  -22.6270   -1.7580   23.0380 H   0  0  0  0  0  0  0  0  0  0  0  0
  -23.0550   -3.0340   21.8960 H   0  0  0  0  0  0  0  0  0  0  0  0
  -21.5930   -1.6880   21.2330 N   0  0  0  0  0  0  0  0  0  0  0  0
  -20.8190   -2.2190   21.6280 H   0  0  0  0  0  0  0  0  0  0  0  0
  -21.7030   -1.9990   20.2690 H   0  0  0  0  0  0  0  0  0  0  0  0
  1 19  1  0  0  0  0
  1  2  1  0  0  0  0
  3  1  1  0  0  0  0
  4 16  2  0  0  0  0
  4  1  1  0  0  0  0
  5  6  1  0  0  0  0
  6 10  1  0  0  0  0
  6  9  2  0  0  0  0
  7  5  2  0  0  0  0
  7 11  1  0  0  0  0
  8  5  1  0  0  0  0
  9  4  1  0  0  0  0
 11 13  2  0  0  0  0
 12  7  1  0  0  0  0
 13  9  1  0  0  0  0
 13 15  1  0  0  0  0
 14 11  1  0  0  0  0
 15 17  1  0  0  0  0
 15 16  1  0  0  0  0
 16 18  1  0  0  0  0
 19 20  1  0  0  0  0
 21 19  1  0  0  0  0
 22 23  1  0  0  0  0
 22 19  1  0  0  0  0
 24 22  1  0  0  0  0
M  END
>  <MODEL>
1

>  <REMARK>
 VINA RESULT:      -4.6      0.000      0.000
 SMILES NCCc1c[nH]c2c(F)cccc12
 SMILES IDX 3 1 4 4 11 5 12 6 10 7 13 9 8 11 7 13 9 14 6 15 5 16 2 19
 SMILES IDX 1 22
 H PARENT 3 2 3 3 11 8 12 10 10 12 6 17 5 18 2 20 2 21 1 23 1 24
 Flexibility Score: inf

>  <TORSDO>
F 3

$$$$
./dock_file/liganddock202312151433/7Fluorotryptamine_PROamberH_GPCR5A_AF_selefeatureTOP200_color/7Fluorotryptamine_PROamberH_GPCR5A_AF_selefeatureTOP200_color_out_4.pdbqt
 OpenBabel12152314333D

 24 25  0  0  0  0  0  0  0  0999 V2000
  -26.3680   -3.7480   21.6770 C   0  0  0  0  0  0  0  0  0  0  0  0
  -25.3240   -3.7240   22.0140 H   0  0  0  0  0  0  0  0  0  0  0  0
  -26.8030   -4.6550   22.1160 H   0  0  0  0  0  0  0  0  0  0  0  0
  -26.3840   -3.8490   20.1830 C   0  0  0  0  0  0  0  0  0  0  0  0
  -23.6850   -1.9070   18.2710 C   0  0  0  0  0  0  0  0  0  0  0  0
  -24.3670   -2.3580   19.4110 C   0  0  0  0  0  0  0  0  0  0  0  0
  -24.0960   -2.2960   16.9990 C   0  0  0  0  0  0  0  0  0  0  0  0
  -22.8300   -1.2460   18.3850 H   0  0  0  0  0  0  0  0  0  0  0  0
  -25.4800   -3.2150   19.2690 C   0  0  0  0  0  0  0  0  0  0  0  0
  -24.0370   -2.0460   20.3970 H   0  0  0  0  0  0  0  0  0  0  0  0
  -25.1930   -3.1410   16.8440 C   0  0  0  0  0  0  0  0  0  0  0  0
  -23.5680   -1.9450   16.1180 H   0  0  0  0  0  0  0  0  0  0  0  0
  -25.8660   -3.5870   17.9800 C   0  0  0  0  0  0  0  0  0  0  0  0
  -25.5870   -3.5140   15.6190 F   0  0  0  0  0  0  0  0  0  0  0  0
  -26.9590   -4.4080   18.1000 N   0  0  0  0  0  0  0  0  0  0  0  0
  -27.2750   -4.5790   19.4200 C   0  0  0  0  0  0  0  0  0  0  0  0
  -27.4520   -4.8170   17.3170 H   0  0  0  0  0  0  0  0  0  0  0  0
  -28.1180   -5.1940   19.7090 H   0  0  0  0  0  0  0  0  0  0  0  0
  -27.0830   -2.5040   22.2240 C   0  0  0  0  0  0  0  0  0  0  0  0
  -27.4890   -1.9340   21.3810 H   0  0  0  0  0  0  0  0  0  0  0  0
  -27.9290   -2.7940   22.8580 H   0  0  0  0  0  0  0  0  0  0  0  0
  -26.2010   -1.6170   22.9850 N   0  0  0  0  0  0  0  0  0  0  0  0
  -26.1070   -1.9570   23.9390 H   0  0  0  0  0  0  0  0  0  0  0  0
  -25.2690   -1.6300   22.5730 H   0  0  0  0  0  0  0  0  0  0  0  0
  1  2  1  0  0  0  0
  1  3  1  0  0  0  0
  1 19  1  0  0  0  0
  4  1  1  0  0  0  0
  5  8  1  0  0  0  0
  5  6  2  0  0  0  0
  6 10  1  0  0  0  0
  7  5  1  0  0  0  0
  9  6  1  0  0  0  0
  9  4  1  0  0  0  0
 11  7  2  0  0  0  0
 11 13  1  0  0  0  0
 12  7  1  0  0  0  0
 13 15  1  0  0  0  0
 13  9  2  0  0  0  0
 14 11  1  0  0  0  0
 15 16  1  0  0  0  0
 16 18  1  0  0  0  0
 16  4  2  0  0  0  0
 17 15  1  0  0  0  0
 19 21  1  0  0  0  0
 19 22  1  0  0  0  0
 20 19  1  0  0  0  0
 22 23  1  0  0  0  0
 24 22  1  0  0  0  0
M  END
>  <REMARK>
 VINA RESULT:      -4.5      2.129      2.710
 SMILES NCCc1c[nH]c2c(F)cccc12
 SMILES IDX 3 1 4 4 11 5 12 6 10 7 13 9 8 11 7 13 9 14 6 15 5 16 2 19
 SMILES IDX 1 22
 H PARENT 3 2 3 3 11 8 12 10 10 12 6 17 5 18 2 20 2 21 1 23 1 24
 Flexibility Score: inf

>  <TORSDO>
F 3

$$$$
./dock_file/liganddock202312151433/7Fluorotryptamine_PROamberH_GPCR5A_AF_selefeatureTOP200_color/7Fluorotryptamine_PROamberH_GPCR5A_AF_selefeatureTOP200_color_out_4.pdbqt
 OpenBabel12152314333D

 24 25  0  0  0  0  0  0  0  0999 V2000
  -24.3810   -2.8000   17.1740 C   0  0  0  0  0  0  0  0  0  0  0  0
  -23.6480   -3.6160   17.2100 H   0  0  0  0  0  0  0  0  0  0  0  0
  -23.7960   -1.8720   17.2060 H   0  0  0  0  0  0  0  0  0  0  0  0
  -25.2570   -2.8920   18.3850 C   0  0  0  0  0  0  0  0  0  0  0  0
  -24.0000   -1.1840   21.5810 C   0  0  0  0  0  0  0  0  0  0  0  0
  -23.9380   -1.5790   20.2370 C   0  0  0  0  0  0  0  0  0  0  0  0
  -25.0930   -1.5280   22.3720 C   0  0  0  0  0  0  0  0  0  0  0  0
  -23.1850   -0.6040   22.0080 H   0  0  0  0  0  0  0  0  0  0  0  0
  -24.9940   -2.3330   19.6800 C   0  0  0  0  0  0  0  0  0  0  0  0
  -23.0790   -1.3060   19.6320 H   0  0  0  0  0  0  0  0  0  0  0  0
  -26.1410   -2.2710   21.8350 C   0  0  0  0  0  0  0  0  0  0  0  0
  -25.1390   -1.2210   23.4120 H   0  0  0  0  0  0  0  0  0  0  0  0
  -26.0750   -2.6610   20.4980 C   0  0  0  0  0  0  0  0  0  0  0  0
  -27.1920   -2.6020   22.5980 F   0  0  0  0  0  0  0  0  0  0  0  0
  -26.9580   -3.3900   19.7410 N   0  0  0  0  0  0  0  0  0  0  0  0
  -26.4810   -3.5280   18.4670 C   0  0  0  0  0  0  0  0  0  0  0  0
  -27.8300   -3.7670   20.0890 H   0  0  0  0  0  0  0  0  0  0  0  0
  -27.0420   -4.0810   17.7250 H   0  0  0  0  0  0  0  0  0  0  0  0
  -25.1460   -2.8930   15.8460 C   0  0  0  0  0  0  0  0  0  0  0  0
  -24.7150   -3.7040   15.2480 H   0  0  0  0  0  0  0  0  0  0  0  0
  -26.1980   -3.1440   16.0240 H   0  0  0  0  0  0  0  0  0  0  0  0
  -25.0790   -1.6640   15.0520 N   0  0  0  0  0  0  0  0  0  0  0  0
  -25.9170   -1.1060   15.2060 H   0  0  0  0  0  0  0  0  0  0  0  0
  -24.2890   -1.1010   15.3630 H   0  0  0  0  0  0  0  0  0  0  0  0
  1  3  1  0  0  0  0
  1  2  1  0  0  0  0
  1  4  1  0  0  0  0
  4 16  2  0  0  0  0
  4  9  1  0  0  0  0
  5  8  1  0  0  0  0
  5  7  2  0  0  0  0
  6  5  1  0  0  0  0
  7 12  1  0  0  0  0
  9  6  2  0  0  0  0
  9 13  1  0  0  0  0
 10  6  1  0  0  0  0
 11  7  1  0  0  0  0
 11 14  1  0  0  0  0
 13 11  2  0  0  0  0
 15 17  1  0  0  0  0
 15 13  1  0  0  0  0
 16 15  1  0  0  0  0
 18 16  1  0  0  0  0
 19 21  1  0  0  0  0
 19  1  1  0  0  0  0
 20 19  1  0  0  0  0
 22 23  1  0  0  0  0
 22 24  1  0  0  0  0
 22 19  1  0  0  0  0
M  END
>  <REMARK>
 VINA RESULT:      -4.5      2.344      4.313
 SMILES NCCc1c[nH]c2c(F)cccc12
 SMILES IDX 3 1 4 4 11 5 12 6 10 7 13 9 8 11 7 13 9 14 6 15 5 16 2 19
 SMILES IDX 1 22
 H PARENT 3 2 3 3 11 8 12 10 10 12 6 17 5 18 2 20 2 21 1 23 1 24
 Flexibility Score: inf

>  <TORSDO>
F 3

$$$$
