MODEL 1
REMARK VINA RESULT:      -5.0      0.000      0.000
REMARK SMILES NCCc1c[nH]c2c(F)cccc12
REMARK SMILES IDX 3 1 4 4 11 5 12 6 10 7 13 9 8 11 7 13 9 14 6 15 5 16 2 19
REMARK SMILES IDX 1 22
REMARK H PARENT 3 2 3 3 11 8 12 10 10 12 6 17 5 18 2 20 2 21 1 23 1 24
REMARK Flexibility Score: inf
ROOT
ATOM      1  C   UNL     1     -18.242  11.767  18.518  1.00  0.00    -0.013 C 
ATOM      2  H   UNL     1     -18.014  10.918  19.175  1.00  0.00     0.033 H 
ATOM      3  H   UNL     1     -17.541  11.690  17.676  1.00  0.00     0.033 H 
ENDROOT
BRANCH   1   4
ATOM      4  C   UNL     1     -17.990  13.036  19.273  1.00  0.00    -0.021 A 
ATOM      5  C   UNL     1     -15.535  15.538  17.715  1.00  0.00    -0.059 A 
ATOM      6  C   UNL     1     -16.271  14.346  17.783  1.00  0.00    -0.052 A 
ATOM      7  C   UNL     1     -15.634  16.490  18.727  1.00  0.00    -0.024 A 
ATOM      8  H   UNL     1     -14.882  15.717  16.865  1.00  0.00     0.062 H 
ATOM      9  C   UNL     1     -17.120  14.108  18.886  1.00  0.00     0.006 A 
ATOM     10  H   UNL     1     -16.184  13.611  16.989  1.00  0.00     0.063 H 
ATOM     11  C   UNL     1     -16.466  16.268  19.821  1.00  0.00     0.147 A 
ATOM     12  H   UNL     1     -15.063  17.411  18.673  1.00  0.00     0.065 H 
ATOM     13  C   UNL     1     -17.196  15.082  19.882  1.00  0.00     0.082 A 
ATOM     14  F   UNL     1     -16.559  17.185  20.793  1.00  0.00    -0.205 F 
ATOM     15  N   UNL     1     -18.071  14.626  20.837  1.00  0.00    -0.359 N 
ATOM     16  C   UNL     1     -18.561  13.400  20.477  1.00  0.00     0.005 A 
ATOM     17  H   UNL     1     -18.306  15.131  21.681  1.00  0.00     0.166 HD
ATOM     18  H   UNL     1     -19.263  12.879  21.115  1.00  0.00     0.082 H 
ENDBRANCH   1   4
BRANCH   1  19
ATOM     19  C   UNL     1     -19.685  11.619  18.015  1.00  0.00    -0.004 C 
ATOM     20  H   UNL     1     -19.871  10.563  17.790  1.00  0.00     0.043 H 
ATOM     21  H   UNL     1     -20.396  11.916  18.795  1.00  0.00     0.043 H 
BRANCH  19  22
ATOM     22  N   UNL     1     -19.958  12.393  16.802  1.00  0.00    -0.330 NA
ATOM     23  H   UNL     1     -19.164  12.993  16.588  1.00  0.00     0.118 HD
ATOM     24  H   UNL     1     -20.071  11.759  16.013  1.00  0.00     0.118 HD
ENDBRANCH  19  22
ENDBRANCH   1  19
TORSDOF 3
ENDMDL
MODEL 2
REMARK VINA RESULT:      -5.0     10.522     13.070
REMARK SMILES NCCc1c[nH]c2c(F)cccc12
REMARK SMILES IDX 3 1 4 4 11 5 12 6 10 7 13 9 8 11 7 13 9 14 6 15 5 16 2 19
REMARK SMILES IDX 1 22
REMARK H PARENT 3 2 3 3 11 8 12 10 10 12 6 17 5 18 2 20 2 21 1 23 1 24
REMARK Flexibility Score: inf
ROOT
ATOM      1  C   UNL     1     -24.499  12.402  12.588  1.00  0.00    -0.013 C 
ATOM      2  H   UNL     1     -24.629  13.232  13.294  1.00  0.00     0.033 H 
ATOM      3  H   UNL     1     -23.579  12.624  12.032  1.00  0.00     0.033 H 
ENDROOT
BRANCH   1   4
ATOM      4  C   UNL     1     -25.667  12.387  11.650  1.00  0.00    -0.021 A 
ATOM      5  C   UNL     1     -26.016   9.341   9.345  1.00  0.00    -0.059 A 
ATOM      6  C   UNL     1     -25.417  10.125  10.342  1.00  0.00    -0.052 A 
ATOM      7  C   UNL     1     -27.178   9.770   8.709  1.00  0.00    -0.024 A 
ATOM      8  H   UNL     1     -25.566   8.392   9.067  1.00  0.00     0.062 H 
ATOM      9  C   UNL     1     -25.998  11.360  10.706  1.00  0.00     0.006 A 
ATOM     10  H   UNL     1     -24.510   9.780  10.829  1.00  0.00     0.063 H 
ATOM     11  C   UNL     1     -27.761  10.986   9.057  1.00  0.00     0.147 A 
ATOM     12  H   UNL     1     -27.640   9.163   7.937  1.00  0.00     0.065 H 
ATOM     13  C   UNL     1     -27.162  11.761  10.049  1.00  0.00     0.082 A 
ATOM     14  F   UNL     1     -28.878  11.397   8.443  1.00  0.00    -0.205 F 
ATOM     15  N   UNL     1     -27.527  12.979  10.566  1.00  0.00    -0.359 N 
ATOM     16  C   UNL     1     -26.640  13.362  11.535  1.00  0.00     0.005 A 
ATOM     17  H   UNL     1     -28.333  13.507  10.263  1.00  0.00     0.166 HD
ATOM     18  H   UNL     1     -26.763  14.304  12.054  1.00  0.00     0.082 H 
ENDBRANCH   1   4
BRANCH   1  19
ATOM     19  C   UNL     1     -24.329  11.104  13.390  1.00  0.00    -0.004 C 
ATOM     20  H   UNL     1     -25.077  11.085  14.190  1.00  0.00     0.043 H 
ATOM     21  H   UNL     1     -24.512  10.231  12.752  1.00  0.00     0.043 H 
BRANCH  19  22
ATOM     22  N   UNL     1     -23.007  10.974  14.006  1.00  0.00    -0.330 NA
ATOM     23  H   UNL     1     -23.097  10.578  14.939  1.00  0.00     0.118 HD
ATOM     24  H   UNL     1     -22.441  10.325  13.463  1.00  0.00     0.118 HD
ENDBRANCH  19  22
ENDBRANCH   1  19
TORSDOF 3
ENDMDL
MODEL 3
REMARK VINA RESULT:      -4.9     10.858     13.303
REMARK SMILES NCCc1c[nH]c2c(F)cccc12
REMARK SMILES IDX 3 1 4 4 11 5 12 6 10 7 13 9 8 11 7 13 9 14 6 15 5 16 2 19
REMARK SMILES IDX 1 22
REMARK H PARENT 3 2 3 3 11 8 12 10 10 12 6 17 5 18 2 20 2 21 1 23 1 24
REMARK Flexibility Score: inf
ROOT
ATOM      1  C   UNL     1     -24.862  11.990  12.627  1.00  0.00    -0.013 C 
ATOM      2  H   UNL     1     -25.465  12.559  13.347  1.00  0.00     0.033 H 
ATOM      3  H   UNL     1     -24.151  12.709  12.200  1.00  0.00     0.033 H 
ENDROOT
BRANCH   1   4
ATOM      4  C   UNL     1     -25.767  11.471  11.552  1.00  0.00    -0.021 A 
ATOM      5  C   UNL     1     -28.193  13.974   9.951  1.00  0.00    -0.059 A 
ATOM      6  C   UNL     1     -27.179  13.562  10.829  1.00  0.00    -0.052 A 
ATOM      7  C   UNL     1     -28.776  13.069   9.069  1.00  0.00    -0.024 A 
ATOM      8  H   UNL     1     -28.525  15.009   9.963  1.00  0.00     0.062 H 
ATOM      9  C   UNL     1     -26.746  12.218  10.818  1.00  0.00     0.006 A 
ATOM     10  H   UNL     1     -26.733  14.277  11.513  1.00  0.00     0.063 H 
ATOM     11  C   UNL     1     -28.360  11.740   9.047  1.00  0.00     0.147 A 
ATOM     12  H   UNL     1     -29.562  13.389   8.391  1.00  0.00     0.065 H 
ATOM     13  C   UNL     1     -27.351  11.337   9.921  1.00  0.00     0.082 A 
ATOM     14  F   UNL     1     -28.924  10.871   8.198  1.00  0.00    -0.205 F 
ATOM     15  N   UNL     1     -26.772  10.105  10.100  1.00  0.00    -0.359 N 
ATOM     16  C   UNL     1     -25.812  10.176  11.073  1.00  0.00     0.005 A 
ATOM     17  H   UNL     1     -27.029   9.275   9.584  1.00  0.00     0.166 HD
ATOM     18  H   UNL     1     -25.249   9.296  11.356  1.00  0.00     0.082 H 
ENDBRANCH   1   4
BRANCH   1  19
ATOM     19  C   UNL     1     -24.106  10.891  13.388  1.00  0.00    -0.004 C 
ATOM     20  H   UNL     1     -24.566  10.768  14.374  1.00  0.00     0.043 H 
ATOM     21  H   UNL     1     -24.194   9.932  12.865  1.00  0.00     0.043 H 
BRANCH  19  22
ATOM     22  N   UNL     1     -22.687  11.197  13.586  1.00  0.00    -0.330 NA
ATOM     23  H   UNL     1     -22.489  12.143  13.268  1.00  0.00     0.118 HD
ATOM     24  H   UNL     1     -22.469  11.167  14.580  1.00  0.00     0.118 HD
ENDBRANCH  19  22
ENDBRANCH   1  19
TORSDOF 3
ENDMDL
