./dock_file/liganddock202312151433/7Fluorotryptamine_PROamberH_GPCR5A_AF_selefeatureTOP200_color/7Fluorotryptamine_PROamberH_GPCR5A_AF_selefeatureTOP200_color_out_18.pdbqt
 OpenBabel12152314333D

 24 25  0  0  0  0  0  0  0  0999 V2000
   -8.3270   18.8250    6.9940 C   0  0  0  0  0  0  0  0  0  0  0  0
   -8.0680   19.3640    7.9140 H   0  0  0  0  0  0  0  0  0  0  0  0
   -8.1750   19.5410    6.1760 H   0  0  0  0  0  0  0  0  0  0  0  0
   -9.7710   18.4320    7.0630 C   0  0  0  0  0  0  0  0  0  0  0  0
  -11.0060   16.8870   10.3480 C   0  0  0  0  0  0  0  0  0  0  0  0
  -10.0610   17.4530    9.4800 C   0  0  0  0  0  0  0  0  0  0  0  0
  -12.3250   16.7060    9.9390 C   0  0  0  0  0  0  0  0  0  0  0  0
  -10.7040   16.5870   11.3480 H   0  0  0  0  0  0  0  0  0  0  0  0
  -10.4490   17.8420    8.1800 C   0  0  0  0  0  0  0  0  0  0  0  0
   -9.0350   17.5870    9.8110 H   0  0  0  0  0  0  0  0  0  0  0  0
  -12.7210   17.0850    8.6600 C   0  0  0  0  0  0  0  0  0  0  0  0
  -13.0550   16.2670   10.6120 H   0  0  0  0  0  0  0  0  0  0  0  0
  -11.7770   17.6470    7.8010 C   0  0  0  0  0  0  0  0  0  0  0  0
  -13.9900   16.9090    8.2680 F   0  0  0  0  0  0  0  0  0  0  0  0
  -11.9070   18.0950    6.5100 N   0  0  0  0  0  0  0  0  0  0  0  0
  -10.7080   18.5770    6.0580 C   0  0  0  0  0  0  0  0  0  0  0  0
  -12.7670   18.0640    5.9800 H   0  0  0  0  0  0  0  0  0  0  0  0
  -10.6160   18.9680    5.0540 H   0  0  0  0  0  0  0  0  0  0  0  0
   -7.3660   17.6370    6.8400 C   0  0  0  0  0  0  0  0  0  0  0  0
   -6.6230   17.6810    7.6430 H   0  0  0  0  0  0  0  0  0  0  0  0
   -7.9060   16.6890    6.9460 H   0  0  0  0  0  0  0  0  0  0  0  0
   -6.6500   17.6350    5.5620 N   0  0  0  0  0  0  0  0  0  0  0  0
   -5.9490   18.3730    5.5570 H   0  0  0  0  0  0  0  0  0  0  0  0
   -6.1510   16.7530    5.4540 H   0  0  0  0  0  0  0  0  0  0  0  0
  1  4  1  0  0  0  0
  1  2  1  0  0  0  0
  3  1  1  0  0  0  0
  4  9  1  0  0  0  0
  5  8  1  0  0  0  0
  6 10  1  0  0  0  0
  6  5  2  0  0  0  0
  7  5  1  0  0  0  0
  7 12  1  0  0  0  0
  9  6  1  0  0  0  0
 11  7  2  0  0  0  0
 13  9  2  0  0  0  0
 13 11  1  0  0  0  0
 14 11  1  0  0  0  0
 15 13  1  0  0  0  0
 16 15  1  0  0  0  0
 16  4  2  0  0  0  0
 17 15  1  0  0  0  0
 18 16  1  0  0  0  0
 19 21  1  0  0  0  0
 19  1  1  0  0  0  0
 19 20  1  0  0  0  0
 22 19  1  0  0  0  0
 23 22  1  0  0  0  0
 24 22  1  0  0  0  0
M  END
>  <MODEL>
1

>  <REMARK>
 VINA RESULT:      -4.3      0.000      0.000
 SMILES NCCc1c[nH]c2c(F)cccc12
 SMILES IDX 3 1 4 4 11 5 12 6 10 7 13 9 8 11 7 13 9 14 6 15 5 16 2 19
 SMILES IDX 1 22
 H PARENT 3 2 3 3 11 8 12 10 10 12 6 17 5 18 2 20 2 21 1 23 1 24
 Flexibility Score: inf

>  <TORSDO>
F 3

$$$$
./dock_file/liganddock202312151433/7Fluorotryptamine_PROamberH_GPCR5A_AF_selefeatureTOP200_color/7Fluorotryptamine_PROamberH_GPCR5A_AF_selefeatureTOP200_color_out_18.pdbqt
 OpenBabel12152314333D

 24 25  0  0  0  0  0  0  0  0999 V2000
   -8.7820   18.4740    7.2180 C   0  0  0  0  0  0  0  0  0  0  0  0
   -8.6010   19.5340    7.4390 H   0  0  0  0  0  0  0  0  0  0  0  0
   -9.1980   18.4470    6.2030 H   0  0  0  0  0  0  0  0  0  0  0  0
   -9.7910   17.9500    8.1940 C   0  0  0  0  0  0  0  0  0  0  0  0
  -13.3820   17.5040    6.9240 C   0  0  0  0  0  0  0  0  0  0  0  0
  -12.0260   17.8460    6.8220 C   0  0  0  0  0  0  0  0  0  0  0  0
  -13.9030   17.0240    8.1230 C   0  0  0  0  0  0  0  0  0  0  0  0
  -14.0300   17.6150    6.0590 H   0  0  0  0  0  0  0  0  0  0  0  0
  -11.1810   17.7040    7.9450 C   0  0  0  0  0  0  0  0  0  0  0  0
  -11.6320   18.2210    5.8820 H   0  0  0  0  0  0  0  0  0  0  0  0
  -13.0820   16.8790    9.2380 C   0  0  0  0  0  0  0  0  0  0  0  0
  -14.9530   16.7600    8.2000 H   0  0  0  0  0  0  0  0  0  0  0  0
  -11.7340   17.2210    9.1310 C   0  0  0  0  0  0  0  0  0  0  0  0
  -13.5860   16.4190   10.3900 F   0  0  0  0  0  0  0  0  0  0  0  0
  -10.7300   17.1760   10.0650 N   0  0  0  0  0  0  0  0  0  0  0  0
   -9.5550   17.6050    9.5110 C   0  0  0  0  0  0  0  0  0  0  0  0
  -10.8550   16.8720   11.0210 H   0  0  0  0  0  0  0  0  0  0  0  0
   -8.6490   17.6440   10.1020 H   0  0  0  0  0  0  0  0  0  0  0  0
   -7.4380   17.7330    7.2550 C   0  0  0  0  0  0  0  0  0  0  0  0
   -6.7390   18.3050    7.8750 H   0  0  0  0  0  0  0  0  0  0  0  0
   -7.5550   16.7470    7.7210 H   0  0  0  0  0  0  0  0  0  0  0  0
   -6.8340   17.5640    5.9320 N   0  0  0  0  0  0  0  0  0  0  0  0
   -7.5460   17.6610    5.2110 H   0  0  0  0  0  0  0  0  0  0  0  0
   -6.1510   18.3040    5.7740 H   0  0  0  0  0  0  0  0  0  0  0  0
  1 19  1  0  0  0  0
  1  2  1  0  0  0  0
  1  4  1  0  0  0  0
  3  1  1  0  0  0  0
  4 16  2  0  0  0  0
  5  7  1  0  0  0  0
  6  5  2  0  0  0  0
  6  9  1  0  0  0  0
  7 12  1  0  0  0  0
  7 11  2  0  0  0  0
  8  5  1  0  0  0  0
  9  4  1  0  0  0  0
  9 13  2  0  0  0  0
 10  6  1  0  0  0  0
 11 14  1  0  0  0  0
 13 11  1  0  0  0  0
 13 15  1  0  0  0  0
 15 17  1  0  0  0  0
 16 15  1  0  0  0  0
 16 18  1  0  0  0  0
 19 21  1  0  0  0  0
 19 20  1  0  0  0  0
 22 19  1  0  0  0  0
 23 22  1  0  0  0  0
 24 22  1  0  0  0  0
M  END
>  <REMARK>
 VINA RESULT:      -4.2      1.505      2.386
 SMILES NCCc1c[nH]c2c(F)cccc12
 SMILES IDX 3 1 4 4 11 5 12 6 10 7 13 9 8 11 7 13 9 14 6 15 5 16 2 19
 SMILES IDX 1 22
 H PARENT 3 2 3 3 11 8 12 10 10 12 6 17 5 18 2 20 2 21 1 23 1 24
 Flexibility Score: inf

>  <TORSDO>
F 3

$$$$
./dock_file/liganddock202312151433/7Fluorotryptamine_PROamberH_GPCR5A_AF_selefeatureTOP200_color/7Fluorotryptamine_PROamberH_GPCR5A_AF_selefeatureTOP200_color_out_18.pdbqt
 OpenBabel12152314333D

 24 25  0  0  0  0  0  0  0  0999 V2000
   -9.3590   18.6910    8.7250 C   0  0  0  0  0  0  0  0  0  0  0  0
   -9.9340   19.2380    9.4850 H   0  0  0  0  0  0  0  0  0  0  0  0
   -8.5470   19.3650    8.4240 H   0  0  0  0  0  0  0  0  0  0  0  0
  -10.2530   18.4190    7.5550 C   0  0  0  0  0  0  0  0  0  0  0  0
  -13.6930   16.8960    8.3030 C   0  0  0  0  0  0  0  0  0  0  0  0
  -12.4250   17.4030    8.6230 C   0  0  0  0  0  0  0  0  0  0  0  0
  -14.1190   16.8370    6.9780 C   0  0  0  0  0  0  0  0  0  0  0  0
  -14.3460   16.5450    9.0970 H   0  0  0  0  0  0  0  0  0  0  0  0
  -11.5720   17.8590    7.5930 C   0  0  0  0  0  0  0  0  0  0  0  0
  -12.1040   17.4420    9.6590 H   0  0  0  0  0  0  0  0  0  0  0  0
  -13.2880   17.2820    5.9530 C   0  0  0  0  0  0  0  0  0  0  0  0
  -15.1000   16.4430    6.7320 H   0  0  0  0  0  0  0  0  0  0  0  0
  -12.0290   17.7860    6.2770 C   0  0  0  0  0  0  0  0  0  0  0  0
  -13.6990   17.2230    4.6800 F   0  0  0  0  0  0  0  0  0  0  0  0
  -11.0340   18.2770    5.4690 N   0  0  0  0  0  0  0  0  0  0  0  0
   -9.9640   18.6680    6.2270 C   0  0  0  0  0  0  0  0  0  0  0  0
  -11.0950   18.3320    4.4610 H   0  0  0  0  0  0  0  0  0  0  0  0
   -9.0780   19.0770    5.7600 H   0  0  0  0  0  0  0  0  0  0  0  0
   -8.7790   17.4250    9.3730 C   0  0  0  0  0  0  0  0  0  0  0  0
   -8.8400   17.5290   10.4610 H   0  0  0  0  0  0  0  0  0  0  0  0
   -9.3720   16.5460    9.0950 H   0  0  0  0  0  0  0  0  0  0  0  0
   -7.3780   17.1850    9.0200 N   0  0  0  0  0  0  0  0  0  0  0  0
   -7.2990   16.3270    8.4790 H   0  0  0  0  0  0  0  0  0  0  0  0
   -7.0430   17.9410    8.4250 H   0  0  0  0  0  0  0  0  0  0  0  0
  1 19  1  0  0  0  0
  1  2  1  0  0  0  0
  3  1  1  0  0  0  0
  4  9  1  0  0  0  0
  4  1  1  0  0  0  0
  5  6  1  0  0  0  0
  5  8  1  0  0  0  0
  6 10  1  0  0  0  0
  7  5  2  0  0  0  0
  9  6  2  0  0  0  0
 11 13  2  0  0  0  0
 11  7  1  0  0  0  0
 12  7  1  0  0  0  0
 13  9  1  0  0  0  0
 14 11  1  0  0  0  0
 15 16  1  0  0  0  0
 15 13  1  0  0  0  0
 16  4  2  0  0  0  0
 17 15  1  0  0  0  0
 18 16  1  0  0  0  0
 19 20  1  0  0  0  0
 21 19  1  0  0  0  0
 22 19  1  0  0  0  0
 23 22  1  0  0  0  0
 24 22  1  0  0  0  0
M  END
>  <REMARK>
 VINA RESULT:      -4.1      1.969      2.522
 SMILES NCCc1c[nH]c2c(F)cccc12
 SMILES IDX 3 1 4 4 11 5 12 6 10 7 13 9 8 11 7 13 9 14 6 15 5 16 2 19
 SMILES IDX 1 22
 H PARENT 3 2 3 3 11 8 12 10 10 12 6 17 5 18 2 20 2 21 1 23 1 24
 Flexibility Score: inf

>  <TORSDO>
F 3

$$$$
