./dock_file/liganddock202312151433/7Fluorotryptamine_PROamberH_GPCR5A_AF_selefeatureTOP200_color/7Fluorotryptamine_PROamberH_GPCR5A_AF_selefeatureTOP200_color_out_9.pdbqt
 OpenBabel12152314333D

 24 25  0  0  0  0  0  0  0  0999 V2000
   17.7190   14.7560  -21.0940 C   0  0  0  0  0  0  0  0  0  0  0  0
   17.9620   13.6990  -20.9270 H   0  0  0  0  0  0  0  0  0  0  0  0
   18.3870   15.3230  -20.4340 H   0  0  0  0  0  0  0  0  0  0  0  0
   16.2940   14.9870  -20.6950 C   0  0  0  0  0  0  0  0  0  0  0  0
   14.9330   12.8880  -17.7880 C   0  0  0  0  0  0  0  0  0  0  0  0
   15.9020   13.3230  -18.7040 C   0  0  0  0  0  0  0  0  0  0  0  0
   13.6530   13.4350  -17.7980 C   0  0  0  0  0  0  0  0  0  0  0  0
   15.1860   12.1160  -17.0660 H   0  0  0  0  0  0  0  0  0  0  0  0
   15.5780   14.3240  -19.6450 C   0  0  0  0  0  0  0  0  0  0  0  0
   16.8960   12.8860  -18.6870 H   0  0  0  0  0  0  0  0  0  0  0  0
   13.3190   14.4230  -18.7200 C   0  0  0  0  0  0  0  0  0  0  0  0
   12.9040   13.0970  -17.0890 H   0  0  0  0  0  0  0  0  0  0  0  0
   14.2860   14.8520  -19.6280 C   0  0  0  0  0  0  0  0  0  0  0  0
   12.0860   14.9480  -18.7280 F   0  0  0  0  0  0  0  0  0  0  0  0
   14.2140   15.7930  -20.6240 N   0  0  0  0  0  0  0  0  0  0  0  0
   15.4180   15.8890  -21.2680 C   0  0  0  0  0  0  0  0  0  0  0  0
   13.3840   16.3280  -20.8430 H   0  0  0  0  0  0  0  0  0  0  0  0
   15.5490   16.5790  -22.0910 H   0  0  0  0  0  0  0  0  0  0  0  0
   18.0160   15.0960  -22.5620 C   0  0  0  0  0  0  0  0  0  0  0  0
   18.5500   14.2540  -23.0160 H   0  0  0  0  0  0  0  0  0  0  0  0
   17.0830   15.2310  -23.1220 H   0  0  0  0  0  0  0  0  0  0  0  0
   18.8440   16.2940  -22.7220 N   0  0  0  0  0  0  0  0  0  0  0  0
   18.7750   16.8760  -21.8900 H   0  0  0  0  0  0  0  0  0  0  0  0
   19.8220   16.0210  -22.8110 H   0  0  0  0  0  0  0  0  0  0  0  0
  1  2  1  0  0  0  0
  1  4  1  0  0  0  0
  1  3  1  0  0  0  0
  4  9  1  0  0  0  0
  5  8  1  0  0  0  0
  6 10  1  0  0  0  0
  6  5  2  0  0  0  0
  7  5  1  0  0  0  0
  7 12  1  0  0  0  0
  9 13  2  0  0  0  0
  9  6  1  0  0  0  0
 11  7  2  0  0  0  0
 13 11  1  0  0  0  0
 14 11  1  0  0  0  0
 15 13  1  0  0  0  0
 16  4  2  0  0  0  0
 16 15  1  0  0  0  0
 17 15  1  0  0  0  0
 18 16  1  0  0  0  0
 19  1  1  0  0  0  0
 20 19  1  0  0  0  0
 21 19  1  0  0  0  0
 22 19  1  0  0  0  0
 22 23  1  0  0  0  0
 24 22  1  0  0  0  0
M  END
>  <MODEL>
1

>  <REMARK>
 VINA RESULT:      -5.1      0.000      0.000
 SMILES NCCc1c[nH]c2c(F)cccc12
 SMILES IDX 3 1 4 4 11 5 12 6 10 7 13 9 8 11 7 13 9 14 6 15 5 16 2 19
 SMILES IDX 1 22
 H PARENT 3 2 3 3 11 8 12 10 10 12 6 17 5 18 2 20 2 21 1 23 1 24
 Flexibility Score: inf

>  <TORSDO>
F 3

$$$$
./dock_file/liganddock202312151433/7Fluorotryptamine_PROamberH_GPCR5A_AF_selefeatureTOP200_color/7Fluorotryptamine_PROamberH_GPCR5A_AF_selefeatureTOP200_color_out_9.pdbqt
 OpenBabel12152314333D

 24 25  0  0  0  0  0  0  0  0999 V2000
   13.7960   12.0690  -17.3110 C   0  0  0  0  0  0  0  0  0  0  0  0
   13.9400   11.1580  -17.9070 H   0  0  0  0  0  0  0  0  0  0  0  0
   12.7360   12.0750  -17.0280 H   0  0  0  0  0  0  0  0  0  0  0  0
   14.1000   13.2560  -18.1730 C   0  0  0  0  0  0  0  0  0  0  0  0
   17.4460   13.2430  -20.0480 C   0  0  0  0  0  0  0  0  0  0  0  0
   16.4600   12.7280  -19.1930 C   0  0  0  0  0  0  0  0  0  0  0  0
   17.2710   14.4770  -20.6690 C   0  0  0  0  0  0  0  0  0  0  0  0
   18.3540   12.6730  -20.2240 H   0  0  0  0  0  0  0  0  0  0  0  0
   15.2790   13.4670  -18.9600 C   0  0  0  0  0  0  0  0  0  0  0  0
   16.6090   11.7660  -18.7130 H   0  0  0  0  0  0  0  0  0  0  0  0
   16.1120   15.2160  -20.4480 C   0  0  0  0  0  0  0  0  0  0  0  0
   18.0350   14.8750  -21.3290 H   0  0  0  0  0  0  0  0  0  0  0  0
   15.1350   14.7000  -19.5980 C   0  0  0  0  0  0  0  0  0  0  0  0
   15.9460   16.4040  -21.0460 F   0  0  0  0  0  0  0  0  0  0  0  0
   13.9240   15.2210  -19.2160 N   0  0  0  0  0  0  0  0  0  0  0  0
   13.2890   14.3580  -18.3650 C   0  0  0  0  0  0  0  0  0  0  0  0
   13.5670   16.1160  -19.5230 H   0  0  0  0  0  0  0  0  0  0  0  0
   12.3190   14.6040  -17.9540 H   0  0  0  0  0  0  0  0  0  0  0  0
   14.6750   11.9710  -16.0550 C   0  0  0  0  0  0  0  0  0  0  0  0
   14.6790   10.9320  -15.7100 H   0  0  0  0  0  0  0  0  0  0  0  0
   15.7110   12.2410  -16.2890 H   0  0  0  0  0  0  0  0  0  0  0  0
   14.2020   12.8110  -14.9520 N   0  0  0  0  0  0  0  0  0  0  0  0
   13.2960   13.2120  -15.1850 H   0  0  0  0  0  0  0  0  0  0  0  0
   14.0660   12.2360  -14.1220 H   0  0  0  0  0  0  0  0  0  0  0  0
  1  3  1  0  0  0  0
  1 19  1  0  0  0  0
  2  1  1  0  0  0  0
  4  1  1  0  0  0  0
  5  6  2  0  0  0  0
  6  9  1  0  0  0  0
  6 10  1  0  0  0  0
  7 11  2  0  0  0  0
  7  5  1  0  0  0  0
  8  5  1  0  0  0  0
  9  4  1  0  0  0  0
 11 13  1  0  0  0  0
 12  7  1  0  0  0  0
 13 15  1  0  0  0  0
 13  9  2  0  0  0  0
 14 11  1  0  0  0  0
 15 16  1  0  0  0  0
 16  4  2  0  0  0  0
 16 18  1  0  0  0  0
 17 15  1  0  0  0  0
 19 20  1  0  0  0  0
 19 22  1  0  0  0  0
 21 19  1  0  0  0  0
 22 24  1  0  0  0  0
 23 22  1  0  0  0  0
M  END
>  <REMARK>
 VINA RESULT:      -4.9      2.452      4.778
 SMILES NCCc1c[nH]c2c(F)cccc12
 SMILES IDX 3 1 4 4 11 5 12 6 10 7 13 9 8 11 7 13 9 14 6 15 5 16 2 19
 SMILES IDX 1 22
 H PARENT 3 2 3 3 11 8 12 10 10 12 6 17 5 18 2 20 2 21 1 23 1 24
 Flexibility Score: inf

>  <TORSDO>
F 3

$$$$
./dock_file/liganddock202312151433/7Fluorotryptamine_PROamberH_GPCR5A_AF_selefeatureTOP200_color/7Fluorotryptamine_PROamberH_GPCR5A_AF_selefeatureTOP200_color_out_9.pdbqt
 OpenBabel12152314333D

 24 25  0  0  0  0  0  0  0  0999 V2000
   14.0210   12.7070  -17.1530 C   0  0  0  0  0  0  0  0  0  0  0  0
   13.1480   12.2830  -17.6660 H   0  0  0  0  0  0  0  0  0  0  0  0
   13.7490   13.7420  -16.9080 H   0  0  0  0  0  0  0  0  0  0  0  0
   15.1820   12.6980  -18.1000 C   0  0  0  0  0  0  0  0  0  0  0  0
   15.4960   15.6690  -20.5050 C   0  0  0  0  0  0  0  0  0  0  0  0
   14.9090   14.9150  -19.4790 C   0  0  0  0  0  0  0  0  0  0  0  0
   16.6560   15.2250  -21.1360 C   0  0  0  0  0  0  0  0  0  0  0  0
   15.0390   16.6070  -20.8110 H   0  0  0  0  0  0  0  0  0  0  0  0
   15.4990   13.6950  -19.0800 C   0  0  0  0  0  0  0  0  0  0  0  0
   14.0040   15.2710  -18.9960 H   0  0  0  0  0  0  0  0  0  0  0  0
   17.2470   14.0250  -20.7530 C   0  0  0  0  0  0  0  0  0  0  0  0
   17.1080   15.8100  -21.9310 H   0  0  0  0  0  0  0  0  0  0  0  0
   16.6600   13.2800  -19.7320 C   0  0  0  0  0  0  0  0  0  0  0  0
   18.3630   13.5990  -21.3620 F   0  0  0  0  0  0  0  0  0  0  0  0
   17.0360   12.0810  -19.1780 N   0  0  0  0  0  0  0  0  0  0  0  0
   16.1580   11.7250  -18.1900 C   0  0  0  0  0  0  0  0  0  0  0  0
   17.8430   11.5470  -19.4710 H   0  0  0  0  0  0  0  0  0  0  0  0
   16.2910   10.8010  -17.6430 H   0  0  0  0  0  0  0  0  0  0  0  0
   14.2630   11.9080  -15.8650 C   0  0  0  0  0  0  0  0  0  0  0  0
   13.5120   11.1130  -15.7980 H   0  0  0  0  0  0  0  0  0  0  0  0
   15.2470   11.4240  -15.8920 H   0  0  0  0  0  0  0  0  0  0  0  0
   14.1670   12.7220  -14.6520 N   0  0  0  0  0  0  0  0  0  0  0  0
   14.1040   13.7070  -14.9000 H   0  0  0  0  0  0  0  0  0  0  0  0
   13.3100   12.4880  -14.1530 H   0  0  0  0  0  0  0  0  0  0  0  0
  1  3  1  0  0  0  0
  1 19  1  0  0  0  0
  2  1  1  0  0  0  0
  4  1  1  0  0  0  0
  5  6  2  0  0  0  0
  6  9  1  0  0  0  0
  6 10  1  0  0  0  0
  7 11  2  0  0  0  0
  7  5  1  0  0  0  0
  8  5  1  0  0  0  0
  9  4  1  0  0  0  0
 11 13  1  0  0  0  0
 12  7  1  0  0  0  0
 13 15  1  0  0  0  0
 13  9  2  0  0  0  0
 14 11  1  0  0  0  0
 15 16  1  0  0  0  0
 16  4  2  0  0  0  0
 16 18  1  0  0  0  0
 17 15  1  0  0  0  0
 19 20  1  0  0  0  0
 19 22  1  0  0  0  0
 21 19  1  0  0  0  0
 22 24  1  0  0  0  0
 23 22  1  0  0  0  0
M  END
>  <REMARK>
 VINA RESULT:      -4.9      3.171      5.451
 SMILES NCCc1c[nH]c2c(F)cccc12
 SMILES IDX 3 1 4 4 11 5 12 6 10 7 13 9 8 11 7 13 9 14 6 15 5 16 2 19
 SMILES IDX 1 22
 H PARENT 3 2 3 3 11 8 12 10 10 12 6 17 5 18 2 20 2 21 1 23 1 24
 Flexibility Score: inf

>  <TORSDO>
F 3

$$$$
