MODEL 1
REMARK VINA RESULT:      -4.7      0.000      0.000
REMARK SMILES NCCc1c[nH]c2c(F)cccc12
REMARK SMILES IDX 3 1 4 4 11 5 12 6 10 7 13 9 8 11 7 13 9 14 6 15 5 16 2 19
REMARK SMILES IDX 1 22
REMARK H PARENT 3 2 3 3 11 8 12 10 10 12 6 17 5 18 2 20 2 21 1 23 1 24
REMARK Flexibility Score: inf
ROOT
ATOM      1  C   UNL     1       9.124   1.680 -16.046  1.00  0.00    -0.013 C 
ATOM      2  H   UNL     1       9.514   1.952 -15.057  1.00  0.00     0.033 H 
ATOM      3  H   UNL     1       9.677   0.781 -16.347  1.00  0.00     0.033 H 
ENDROOT
BRANCH   1   4
ATOM      4  C   UNL     1       9.416   2.799 -16.998  1.00  0.00    -0.021 A 
ATOM      5  C   UNL     1      13.052   3.999 -17.219  1.00  0.00    -0.059 A 
ATOM      6  C   UNL     1      11.997   3.205 -16.747  1.00  0.00    -0.052 A 
ATOM      7  C   UNL     1      12.824   4.984 -18.176  1.00  0.00    -0.024 A 
ATOM      8  H   UNL     1      14.056   3.843 -16.832  1.00  0.00     0.062 H 
ATOM      9  C   UNL     1      10.691   3.405 -17.247  1.00  0.00     0.006 A 
ATOM     10  H   UNL     1      12.188   2.441 -15.999  1.00  0.00     0.063 H 
ATOM     11  C   UNL     1      11.542   5.193 -18.677  1.00  0.00     0.147 A 
ATOM     12  H   UNL     1      13.641   5.599 -18.540  1.00  0.00     0.065 H 
ATOM     13  C   UNL     1      10.497   4.400 -18.205  1.00  0.00     0.082 A 
ATOM     14  F   UNL     1      11.324   6.142 -19.597  1.00  0.00    -0.205 F 
ATOM     15  N   UNL     1       9.163   4.405 -18.527  1.00  0.00    -0.359 N 
ATOM     16  C   UNL     1       8.504   3.441 -17.814  1.00  0.00     0.005 A 
ATOM     17  H   UNL     1       8.740   5.037 -19.193  1.00  0.00     0.166 HD
ATOM     18  H   UNL     1       7.438   3.300 -17.932  1.00  0.00     0.082 H 
ENDBRANCH   1   4
BRANCH   1  19
ATOM     19  C   UNL     1       7.630   1.356 -15.907  1.00  0.00    -0.004 C 
ATOM     20  H   UNL     1       7.409   1.165 -14.852  1.00  0.00     0.043 H 
ATOM     21  H   UNL     1       7.020   2.213 -16.218  1.00  0.00     0.043 H 
BRANCH  19  22
ATOM     22  N   UNL     1       7.219   0.178 -16.675  1.00  0.00    -0.330 NA
ATOM     23  H   UNL     1       7.943  -0.536 -16.627  1.00  0.00     0.118 HD
ATOM     24  H   UNL     1       6.381  -0.224 -16.259  1.00  0.00     0.118 HD
ENDBRANCH  19  22
ENDBRANCH   1  19
TORSDOF 3
ENDMDL
MODEL 2
REMARK VINA RESULT:      -4.6      2.077      2.838
REMARK SMILES NCCc1c[nH]c2c(F)cccc12
REMARK SMILES IDX 3 1 4 4 11 5 12 6 10 7 13 9 8 11 7 13 9 14 6 15 5 16 2 19
REMARK SMILES IDX 1 22
REMARK H PARENT 3 2 3 3 11 8 12 10 10 12 6 17 5 18 2 20 2 21 1 23 1 24
REMARK Flexibility Score: inf
ROOT
ATOM      1  C   UNL     1       7.648   1.765 -15.158  1.00  0.00    -0.013 C 
ATOM      2  H   UNL     1       7.322   2.805 -15.028  1.00  0.00     0.033 H 
ATOM      3  H   UNL     1       7.658   1.328 -14.151  1.00  0.00     0.033 H 
ENDROOT
BRANCH   1   4
ATOM      4  C   UNL     1       9.034   1.767 -15.725  1.00  0.00    -0.021 A 
ATOM      5  C   UNL     1       9.672   4.007 -18.772  1.00  0.00    -0.059 A 
ATOM      6  C   UNL     1       8.904   3.435 -17.747  1.00  0.00    -0.052 A 
ATOM      7  C   UNL     1      11.018   3.681 -18.914  1.00  0.00    -0.024 A 
ATOM      8  H   UNL     1       9.209   4.709 -19.460  1.00  0.00     0.062 H 
ATOM      9  C   UNL     1       9.501   2.520 -16.851  1.00  0.00     0.006 A 
ATOM     10  H   UNL     1       7.855   3.695 -17.648  1.00  0.00     0.063 H 
ATOM     11  C   UNL     1      11.619   2.781 -18.039  1.00  0.00     0.147 A 
ATOM     12  H   UNL     1      11.611   4.124 -19.709  1.00  0.00     0.065 H 
ATOM     13  C   UNL     1      10.852   2.216 -17.021  1.00  0.00     0.082 A 
ATOM     14  F   UNL     1      12.915   2.469 -18.178  1.00  0.00    -0.205 F 
ATOM     15  N   UNL     1      11.196   1.314 -16.045  1.00  0.00    -0.359 N 
ATOM     16  C   UNL     1      10.113   1.043 -15.255  1.00  0.00     0.005 A 
ATOM     17  H   UNL     1      12.118   0.914 -15.940  1.00  0.00     0.166 HD
ATOM     18  H   UNL     1      10.193   0.345 -14.431  1.00  0.00     0.082 H 
ENDBRANCH   1   4
BRANCH   1  19
ATOM     19  C   UNL     1       6.618   1.040 -16.036  1.00  0.00    -0.004 C 
ATOM     20  H   UNL     1       5.768   0.747 -15.410  1.00  0.00     0.043 H 
ATOM     21  H   UNL     1       6.234   1.711 -16.813  1.00  0.00     0.043 H 
BRANCH  19  22
ATOM     22  N   UNL     1       7.148  -0.169 -16.670  1.00  0.00    -0.330 NA
ATOM     23  H   UNL     1       8.057  -0.399 -16.274  1.00  0.00     0.118 HD
ATOM     24  H   UNL     1       6.532  -0.956 -16.471  1.00  0.00     0.118 HD
ENDBRANCH  19  22
ENDBRANCH   1  19
TORSDOF 3
ENDMDL
MODEL 3
REMARK VINA RESULT:      -4.6      1.533      2.177
REMARK SMILES NCCc1c[nH]c2c(F)cccc12
REMARK SMILES IDX 3 1 4 4 11 5 12 6 10 7 13 9 8 11 7 13 9 14 6 15 5 16 2 19
REMARK SMILES IDX 1 22
REMARK H PARENT 3 2 3 3 11 8 12 10 10 12 6 17 5 18 2 20 2 21 1 23 1 24
REMARK Flexibility Score: inf
ROOT
ATOM      1  C   UNL     1       9.408   1.279 -15.764  1.00  0.00    -0.013 C 
ATOM      2  H   UNL     1       9.517   1.109 -14.685  1.00  0.00     0.033 H 
ATOM      3  H   UNL     1       9.779   0.367 -16.249  1.00  0.00     0.033 H 
ENDROOT
BRANCH   1   4
ATOM      4  C   UNL     1      10.264   2.445 -16.152  1.00  0.00    -0.021 A 
ATOM      5  C   UNL     1      10.255   3.465 -19.849  1.00  0.00    -0.059 A 
ATOM      6  C   UNL     1       9.884   2.696 -18.737  1.00  0.00    -0.052 A 
ATOM      7  C   UNL     1      11.145   4.528 -19.711  1.00  0.00    -0.024 A 
ATOM      8  H   UNL     1       9.845   3.227 -20.827  1.00  0.00     0.062 H 
ATOM      9  C   UNL     1      10.416   3.001 -17.464  1.00  0.00     0.006 A 
ATOM     10  H   UNL     1       9.191   1.869 -18.858  1.00  0.00     0.063 H 
ATOM     11  C   UNL     1      11.677   4.839 -18.463  1.00  0.00     0.147 A 
ATOM     12  H   UNL     1      11.432   5.121 -20.573  1.00  0.00     0.065 H 
ATOM     13  C   UNL     1      11.304   4.072 -17.360  1.00  0.00     0.082 A 
ATOM     14  F   UNL     1      12.533   5.861 -18.332  1.00  0.00    -0.205 F 
ATOM     15  N   UNL     1      11.681   4.166 -16.044  1.00  0.00    -0.359 N 
ATOM     16  C   UNL     1      11.055   3.198 -15.306  1.00  0.00     0.005 A 
ATOM     17  H   UNL     1      12.331   4.853 -15.685  1.00  0.00     0.166 HD
ATOM     18  H   UNL     1      11.236   3.113 -14.243  1.00  0.00     0.082 H 
ENDBRANCH   1   4
BRANCH   1  19
ATOM     19  C   UNL     1       7.916   1.471 -16.077  1.00  0.00    -0.004 C 
ATOM     20  H   UNL     1       7.392   1.715 -15.147  1.00  0.00     0.043 H 
ATOM     21  H   UNL     1       7.773   2.314 -16.763  1.00  0.00     0.043 H 
BRANCH  19  22
ATOM     22  N   UNL     1       7.287   0.279 -16.650  1.00  0.00    -0.330 NA
ATOM     23  H   UNL     1       7.999  -0.332 -17.045  1.00  0.00     0.118 HD
ATOM     24  H   UNL     1       6.822  -0.247 -15.913  1.00  0.00     0.118 HD
ENDBRANCH  19  22
ENDBRANCH   1  19
TORSDOF 3
ENDMDL
