MODEL 1
REMARK VINA RESULT:      -3.7      0.000      0.000
REMARK SMILES NCCc1c[nH]c2c(F)cccc12
REMARK SMILES IDX 3 1 4 4 11 5 12 6 10 7 13 9 8 11 7 13 9 14 6 15 5 16 2 19
REMARK SMILES IDX 1 22
REMARK H PARENT 3 2 3 3 11 8 12 10 10 12 6 17 5 18 2 20 2 21 1 23 1 24
REMARK Flexibility Score: inf
ROOT
ATOM      1  C   UNL     1     -13.899 -11.728   8.773  1.00  0.00    -0.013 C 
ATOM      2  H   UNL     1     -13.776 -10.644   8.891  1.00  0.00     0.033 H 
ATOM      3  H   UNL     1     -12.892 -12.124   8.588  1.00  0.00     0.033 H 
ENDROOT
BRANCH   1   4
ATOM      4  C   UNL     1     -14.772 -11.983   7.583  1.00  0.00    -0.021 A 
ATOM      5  C   UNL     1     -13.480 -10.775   4.179  1.00  0.00    -0.059 A 
ATOM      6  C   UNL     1     -13.429 -10.972   5.567  1.00  0.00    -0.052 A 
ATOM      7  C   UNL     1     -14.575 -11.218   3.441  1.00  0.00    -0.024 A 
ATOM      8  H   UNL     1     -12.658 -10.272   3.678  1.00  0.00     0.062 H 
ATOM      9  C   UNL     1     -14.496 -11.625   6.223  1.00  0.00     0.006 A 
ATOM     10  H   UNL     1     -12.570 -10.621   6.132  1.00  0.00     0.063 H 
ATOM     11  C   UNL     1     -15.634 -11.862   4.075  1.00  0.00     0.147 A 
ATOM     12  H   UNL     1     -14.614 -11.064   2.368  1.00  0.00     0.065 H 
ATOM     13  C   UNL     1     -15.578 -12.055   5.454  1.00  0.00     0.082 A 
ATOM     14  F   UNL     1     -16.687 -12.286   3.362  1.00  0.00    -0.205 F 
ATOM     15  N   UNL     1     -16.477 -12.648   6.305  1.00  0.00    -0.359 N 
ATOM     16  C   UNL     1     -15.999 -12.618   7.587  1.00  0.00     0.005 A 
ATOM     17  H   UNL     1     -17.361 -13.043   6.015  1.00  0.00     0.166 HD
ATOM     18  H   UNL     1     -16.577 -13.036   8.400  1.00  0.00     0.082 H 
ENDBRANCH   1   4
BRANCH   1  19
ATOM     19  C   UNL     1     -14.455 -12.300  10.085  1.00  0.00    -0.004 C 
ATOM     20  H   UNL     1     -15.307 -12.948   9.853  1.00  0.00     0.043 H 
ATOM     21  H   UNL     1     -13.701 -12.920  10.585  1.00  0.00     0.043 H 
BRANCH  19  22
ATOM     22  N   UNL     1     -14.915 -11.267  11.017  1.00  0.00    -0.330 NA
ATOM     23  H   UNL     1     -14.683 -11.534  11.972  1.00  0.00     0.118 HD
ATOM     24  H   UNL     1     -14.425 -10.395  10.826  1.00  0.00     0.118 HD
ENDBRANCH  19  22
ENDBRANCH   1  19
TORSDOF 3
ENDMDL
MODEL 2
REMARK VINA RESULT:      -3.6      2.620      4.008
REMARK SMILES NCCc1c[nH]c2c(F)cccc12
REMARK SMILES IDX 3 1 4 4 11 5 12 6 10 7 13 9 8 11 7 13 9 14 6 15 5 16 2 19
REMARK SMILES IDX 1 22
REMARK H PARENT 3 2 3 3 11 8 12 10 10 12 6 17 5 18 2 20 2 21 1 23 1 24
REMARK Flexibility Score: inf
ROOT
ATOM      1  C   UNL     1     -18.672 -12.151   5.546  1.00  0.00    -0.013 C 
ATOM      2  H   UNL     1     -18.884 -13.212   5.362  1.00  0.00     0.033 H 
ATOM      3  H   UNL     1     -18.672 -11.671   4.559  1.00  0.00     0.033 H 
ENDROOT
BRANCH   1   4
ATOM      4  C   UNL     1     -17.314 -12.038   6.167  1.00  0.00    -0.021 A 
ATOM      5  C   UNL     1     -14.420 -11.027   3.861  1.00  0.00    -0.059 A 
ATOM      6  C   UNL     1     -15.751 -11.335   4.179  1.00  0.00    -0.052 A 
ATOM      7  C   UNL     1     -13.433 -11.056   4.843  1.00  0.00    -0.024 A 
ATOM      8  H   UNL     1     -14.159 -10.766   2.839  1.00  0.00     0.062 H 
ATOM      9  C   UNL     1     -16.094 -11.676   5.505  1.00  0.00     0.006 A 
ATOM     10  H   UNL     1     -16.511 -11.311   3.404  1.00  0.00     0.063 H 
ATOM     11  C   UNL     1     -13.757 -11.392   6.154  1.00  0.00     0.147 A 
ATOM     12  H   UNL     1     -12.403 -10.819   4.595  1.00  0.00     0.065 H 
ATOM     13  C   UNL     1     -15.082 -11.696   6.464  1.00  0.00     0.082 A 
ATOM     14  F   UNL     1     -12.805 -11.420   7.097  1.00  0.00    -0.205 F 
ATOM     15  N   UNL     1     -15.654 -12.055   7.659  1.00  0.00    -0.359 N 
ATOM     16  C   UNL     1     -16.998 -12.256   7.494  1.00  0.00     0.005 A 
ATOM     17  H   UNL     1     -15.145 -12.158   8.527  1.00  0.00     0.166 HD
ATOM     18  H   UNL     1     -17.617 -12.552   8.330  1.00  0.00     0.082 H 
ENDBRANCH   1   4
BRANCH   1  19
ATOM     19  C   UNL     1     -19.801 -11.574   6.412  1.00  0.00    -0.004 C 
ATOM     20  H   UNL     1     -19.944 -12.224   7.282  1.00  0.00     0.043 H 
ATOM     21  H   UNL     1     -19.528 -10.581   6.789  1.00  0.00     0.043 H 
BRANCH  19  22
ATOM     22  N   UNL     1     -21.081 -11.478   5.705  1.00  0.00    -0.330 NA
ATOM     23  H   UNL     1     -21.480 -12.406   5.584  1.00  0.00     0.118 HD
ATOM     24  H   UNL     1     -21.741 -10.944   6.269  1.00  0.00     0.118 HD
ENDBRANCH  19  22
ENDBRANCH   1  19
TORSDOF 3
ENDMDL
MODEL 3
REMARK VINA RESULT:      -3.6      2.308      3.651
REMARK SMILES NCCc1c[nH]c2c(F)cccc12
REMARK SMILES IDX 3 1 4 4 11 5 12 6 10 7 13 9 8 11 7 13 9 14 6 15 5 16 2 19
REMARK SMILES IDX 1 22
REMARK H PARENT 3 2 3 3 11 8 12 10 10 12 6 17 5 18 2 20 2 21 1 23 1 24
REMARK Flexibility Score: inf
ROOT
ATOM      1  C   UNL     1     -18.498 -12.132   7.884  1.00  0.00    -0.013 C 
ATOM      2  H   UNL     1     -18.094 -12.074   8.902  1.00  0.00     0.033 H 
ATOM      3  H   UNL     1     -18.924 -13.139   7.788  1.00  0.00     0.033 H 
ENDROOT
BRANCH   1   4
ATOM      4  C   UNL     1     -17.371 -11.962   6.913  1.00  0.00    -0.021 A 
ATOM      5  C   UNL     1     -13.827 -11.769   8.368  1.00  0.00    -0.059 A 
ATOM      6  C   UNL     1     -15.223 -11.892   8.421  1.00  0.00    -0.052 A 
ATOM      7  C   UNL     1     -13.175 -11.622   7.147  1.00  0.00    -0.024 A 
ATOM      8  H   UNL     1     -13.252 -11.787   9.290  1.00  0.00     0.062 H 
ATOM      9  C   UNL     1     -15.975 -11.867   7.225  1.00  0.00     0.006 A 
ATOM     10  H   UNL     1     -15.721 -12.004   9.379  1.00  0.00     0.063 H 
ATOM     11  C   UNL     1     -13.903 -11.596   5.961  1.00  0.00     0.147 A 
ATOM     12  H   UNL     1     -12.094 -11.526   7.108  1.00  0.00     0.065 H 
ATOM     13  C   UNL     1     -15.290 -11.719   6.019  1.00  0.00     0.082 A 
ATOM     14  F   UNL     1     -13.272 -11.453   4.787  1.00  0.00    -0.205 F 
ATOM     15  N   UNL     1     -16.224 -11.720   5.013  1.00  0.00    -0.359 N 
ATOM     16  C   UNL     1     -17.478 -11.874   5.538  1.00  0.00     0.005 A 
ATOM     17  H   UNL     1     -16.004 -11.617   4.031  1.00  0.00     0.166 HD
ATOM     18  H   UNL     1     -18.347 -11.892   4.893  1.00  0.00     0.082 H 
ENDBRANCH   1   4
BRANCH   1  19
ATOM     19  C   UNL     1     -19.606 -11.078   7.740  1.00  0.00    -0.004 C 
ATOM     20  H   UNL     1     -20.001 -11.121   6.719  1.00  0.00     0.043 H 
ATOM     21  H   UNL     1     -20.437 -11.298   8.421  1.00  0.00     0.043 H 
BRANCH  19  22
ATOM     22  N   UNL     1     -19.139  -9.711   7.985  1.00  0.00    -0.330 NA
ATOM     23  H   UNL     1     -18.663  -9.663   8.883  1.00  0.00     0.118 HD
ATOM     24  H   UNL     1     -18.457  -9.453   7.275  1.00  0.00     0.118 HD
ENDBRANCH  19  22
ENDBRANCH   1  19
TORSDOF 3
ENDMDL
