./dock_file/liganddock202312151433/7Fluorotryptamine_PROamberH_GPCR5A_AF_selefeatureTOP200_color/7Fluorotryptamine_PROamberH_GPCR5A_AF_selefeatureTOP200_color_out_14.pdbqt
 OpenBabel12152314333D

 24 25  0  0  0  0  0  0  0  0999 V2000
   16.1120   -5.3090   -4.2800 C   0  0  0  0  0  0  0  0  0  0  0  0
   15.3000   -4.5950   -4.4660 H   0  0  0  0  0  0  0  0  0  0  0  0
   16.9870   -4.7020   -4.0140 H   0  0  0  0  0  0  0  0  0  0  0  0
   16.3820   -6.0650   -5.5440 C   0  0  0  0  0  0  0  0  0  0  0  0
   13.4920   -8.1240   -6.9990 C   0  0  0  0  0  0  0  0  0  0  0  0
   14.1110   -7.2690   -6.0760 C   0  0  0  0  0  0  0  0  0  0  0  0
   14.1950   -8.6070   -8.1000 C   0  0  0  0  0  0  0  0  0  0  0  0
   12.4540   -8.4120   -6.8510 H   0  0  0  0  0  0  0  0  0  0  0  0
   15.4600   -6.8930   -6.2640 C   0  0  0  0  0  0  0  0  0  0  0  0
   13.5530   -6.9000   -5.2210 H   0  0  0  0  0  0  0  0  0  0  0  0
   15.5250   -8.2450   -8.2970 C   0  0  0  0  0  0  0  0  0  0  0  0
   13.7140   -9.2690   -8.8130 H   0  0  0  0  0  0  0  0  0  0  0  0
   16.1360   -7.3940   -7.3770 C   0  0  0  0  0  0  0  0  0  0  0  0
   16.2000   -8.7120   -9.3560 F   0  0  0  0  0  0  0  0  0  0  0  0
   17.4150   -6.8980   -7.3390 N   0  0  0  0  0  0  0  0  0  0  0  0
   17.5720   -6.0900   -6.2460 C   0  0  0  0  0  0  0  0  0  0  0  0
   18.1280   -7.1090   -8.0240 H   0  0  0  0  0  0  0  0  0  0  0  0
   18.5220   -5.6120   -6.0470 H   0  0  0  0  0  0  0  0  0  0  0  0
   15.7120   -6.2010   -3.0960 C   0  0  0  0  0  0  0  0  0  0  0  0
   15.8040   -7.2490   -3.3990 H   0  0  0  0  0  0  0  0  0  0  0  0
   16.3920   -6.0460   -2.2500 H   0  0  0  0  0  0  0  0  0  0  0  0
   14.3350   -5.9820   -2.6450 N   0  0  0  0  0  0  0  0  0  0  0  0
   14.1360   -4.9840   -2.6140 H   0  0  0  0  0  0  0  0  0  0  0  0
   13.6890   -6.3920   -3.3170 H   0  0  0  0  0  0  0  0  0  0  0  0
  1  3  1  0  0  0  0
  1 19  1  0  0  0  0
  2  1  1  0  0  0  0
  4  1  1  0  0  0  0
  5  8  1  0  0  0  0
  5  6  2  0  0  0  0
  6 10  1  0  0  0  0
  7  5  1  0  0  0  0
  9  6  1  0  0  0  0
  9  4  1  0  0  0  0
 11  7  2  0  0  0  0
 11 13  1  0  0  0  0
 12  7  1  0  0  0  0
 13 15  1  0  0  0  0
 13  9  2  0  0  0  0
 14 11  1  0  0  0  0
 15 16  1  0  0  0  0
 16 18  1  0  0  0  0
 16  4  2  0  0  0  0
 17 15  1  0  0  0  0
 19 22  1  0  0  0  0
 19 21  1  0  0  0  0
 20 19  1  0  0  0  0
 22 23  1  0  0  0  0
 24 22  1  0  0  0  0
M  END
>  <MODEL>
1

>  <REMARK>
 VINA RESULT:      -5.3      0.000      0.000
 SMILES NCCc1c[nH]c2c(F)cccc12
 SMILES IDX 3 1 4 4 11 5 12 6 10 7 13 9 8 11 7 13 9 14 6 15 5 16 2 19
 SMILES IDX 1 22
 H PARENT 3 2 3 3 11 8 12 10 10 12 6 17 5 18 2 20 2 21 1 23 1 24
 Flexibility Score: inf

>  <TORSDO>
F 3

$$$$
./dock_file/liganddock202312151433/7Fluorotryptamine_PROamberH_GPCR5A_AF_selefeatureTOP200_color/7Fluorotryptamine_PROamberH_GPCR5A_AF_selefeatureTOP200_color_out_14.pdbqt
 OpenBabel12152314333D

 24 25  0  0  0  0  0  0  0  0999 V2000
    8.3960  -13.7170  -13.6170 C   0  0  0  0  0  0  0  0  0  0  0  0
    8.3730  -12.6820  -13.9820 H   0  0  0  0  0  0  0  0  0  0  0  0
    7.6110  -13.7810  -12.8520 H   0  0  0  0  0  0  0  0  0  0  0  0
    9.7330  -13.9740  -12.9940 C   0  0  0  0  0  0  0  0  0  0  0  0
   12.8240  -13.3750  -15.1850 C   0  0  0  0  0  0  0  0  0  0  0  0
   11.4520  -13.4160  -14.8980 C   0  0  0  0  0  0  0  0  0  0  0  0
   13.7610  -13.7290  -14.2180 C   0  0  0  0  0  0  0  0  0  0  0  0
   13.1560  -13.0660  -16.1730 H   0  0  0  0  0  0  0  0  0  0  0  0
   11.0150  -13.8190  -13.6160 C   0  0  0  0  0  0  0  0  0  0  0  0
   10.7310  -13.1400  -15.6610 H   0  0  0  0  0  0  0  0  0  0  0  0
   13.3450  -14.1290  -12.9510 C   0  0  0  0  0  0  0  0  0  0  0  0
   14.8220  -13.6980  -14.4420 H   0  0  0  0  0  0  0  0  0  0  0  0
   11.9800  -14.1670  -12.6700 C   0  0  0  0  0  0  0  0  0  0  0  0
   14.2480  -14.4690  -12.0220 F   0  0  0  0  0  0  0  0  0  0  0  0
   11.3190  -14.5220  -11.5210 N   0  0  0  0  0  0  0  0  0  0  0  0
    9.9670  -14.4020  -11.7010 C   0  0  0  0  0  0  0  0  0  0  0  0
   11.7760  -14.8290  -10.6730 H   0  0  0  0  0  0  0  0  0  0  0  0
    9.2810  -14.6460  -10.9010 H   0  0  0  0  0  0  0  0  0  0  0  0
    8.0650  -14.6530  -14.7880 C   0  0  0  0  0  0  0  0  0  0  0  0
    8.7540  -15.5040  -14.7630 H   0  0  0  0  0  0  0  0  0  0  0  0
    7.0500  -15.0530  -14.6870 H   0  0  0  0  0  0  0  0  0  0  0  0
    8.1940  -14.0090  -16.0970 N   0  0  0  0  0  0  0  0  0  0  0  0
    9.1120  -14.2030  -16.4910 H   0  0  0  0  0  0  0  0  0  0  0  0
    7.5080  -14.4020  -16.7390 H   0  0  0  0  0  0  0  0  0  0  0  0
  1  4  1  0  0  0  0
  1  3  1  0  0  0  0
  2  1  1  0  0  0  0
  4 16  2  0  0  0  0
  5  6  2  0  0  0  0
  5  7  1  0  0  0  0
  6  9  1  0  0  0  0
  7 11  2  0  0  0  0
  8  5  1  0  0  0  0
  9  4  1  0  0  0  0
  9 13  2  0  0  0  0
 10  6  1  0  0  0  0
 11 13  1  0  0  0  0
 11 14  1  0  0  0  0
 12  7  1  0  0  0  0
 13 15  1  0  0  0  0
 15 17  1  0  0  0  0
 16 15  1  0  0  0  0
 16 18  1  0  0  0  0
 19 20  1  0  0  0  0
 19 21  1  0  0  0  0
 19  1  1  0  0  0  0
 22 19  1  0  0  0  0
 23 22  1  0  0  0  0
 24 22  1  0  0  0  0
M  END
>  <REMARK>
 VINA RESULT:      -5.0     10.257     11.762
 SMILES NCCc1c[nH]c2c(F)cccc12
 SMILES IDX 3 1 4 4 11 5 12 6 10 7 13 9 8 11 7 13 9 14 6 15 5 16 2 19
 SMILES IDX 1 22
 H PARENT 3 2 3 3 11 8 12 10 10 12 6 17 5 18 2 20 2 21 1 23 1 24
 Flexibility Score: inf

>  <TORSDO>
F 3

$$$$
./dock_file/liganddock202312151433/7Fluorotryptamine_PROamberH_GPCR5A_AF_selefeatureTOP200_color/7Fluorotryptamine_PROamberH_GPCR5A_AF_selefeatureTOP200_color_out_14.pdbqt
 OpenBabel12152314333D

 24 25  0  0  0  0  0  0  0  0999 V2000
   14.1610   -8.0890   -7.9700 C   0  0  0  0  0  0  0  0  0  0  0  0
   13.2830   -7.4690   -7.7480 H   0  0  0  0  0  0  0  0  0  0  0  0
   13.9580   -9.0670   -7.5140 H   0  0  0  0  0  0  0  0  0  0  0  0
   15.3610   -7.4670   -7.3250 C   0  0  0  0  0  0  0  0  0  0  0  0
   14.8190   -5.7080   -3.9600 C   0  0  0  0  0  0  0  0  0  0  0  0
   14.4340   -6.4280   -5.1000 C   0  0  0  0  0  0  0  0  0  0  0  0
   16.1450   -5.3200   -3.7820 C   0  0  0  0  0  0  0  0  0  0  0  0
   14.0750   -5.4500   -3.2110 H   0  0  0  0  0  0  0  0  0  0  0  0
   15.3970   -6.7640   -6.0760 C   0  0  0  0  0  0  0  0  0  0  0  0
   13.3970   -6.7230   -5.2280 H   0  0  0  0  0  0  0  0  0  0  0  0
   17.1050   -5.6430   -4.7370 C   0  0  0  0  0  0  0  0  0  0  0  0
   16.4410   -4.7610   -2.9000 H   0  0  0  0  0  0  0  0  0  0  0  0
   16.7160   -6.3600   -5.8670 C   0  0  0  0  0  0  0  0  0  0  0  0
   18.3800   -5.2680   -4.5630 F   0  0  0  0  0  0  0  0  0  0  0  0
   17.4540   -6.7940   -6.9400 N   0  0  0  0  0  0  0  0  0  0  0  0
   16.6510   -7.4680   -7.8200 C   0  0  0  0  0  0  0  0  0  0  0  0
   18.4450   -6.6300   -7.0540 H   0  0  0  0  0  0  0  0  0  0  0  0
   17.0590   -7.8810   -8.7330 H   0  0  0  0  0  0  0  0  0  0  0  0
   14.2800   -8.2350   -9.4940 C   0  0  0  0  0  0  0  0  0  0  0  0
   15.1360   -8.8810   -9.7190 H   0  0  0  0  0  0  0  0  0  0  0  0
   13.3880   -8.7220   -9.9040 H   0  0  0  0  0  0  0  0  0  0  0  0
   14.4850   -6.9590  -10.1830 N   0  0  0  0  0  0  0  0  0  0  0  0
   13.7150   -6.7840  -10.8250 H   0  0  0  0  0  0  0  0  0  0  0  0
   14.4800   -6.2010   -9.5020 H   0  0  0  0  0  0  0  0  0  0  0  0
  1  2  1  0  0  0  0
  1  3  1  0  0  0  0
  1  4  1  0  0  0  0
  4  9  1  0  0  0  0
  5  7  1  0  0  0  0
  5  8  1  0  0  0  0
  6  5  2  0  0  0  0
  7 12  1  0  0  0  0
  9 13  2  0  0  0  0
  9  6  1  0  0  0  0
 10  6  1  0  0  0  0
 11 14  1  0  0  0  0
 11  7  2  0  0  0  0
 13 11  1  0  0  0  0
 15 13  1  0  0  0  0
 16  4  2  0  0  0  0
 16 15  1  0  0  0  0
 17 15  1  0  0  0  0
 18 16  1  0  0  0  0
 19  1  1  0  0  0  0
 20 19  1  0  0  0  0
 21 19  1  0  0  0  0
 22 24  1  0  0  0  0
 22 19  1  0  0  0  0
 23 22  1  0  0  0  0
M  END
>  <REMARK>
 VINA RESULT:      -5.0      2.435      4.461
 SMILES NCCc1c[nH]c2c(F)cccc12
 SMILES IDX 3 1 4 4 11 5 12 6 10 7 13 9 8 11 7 13 9 14 6 15 5 16 2 19
 SMILES IDX 1 22
 H PARENT 3 2 3 3 11 8 12 10 10 12 6 17 5 18 2 20 2 21 1 23 1 24
 Flexibility Score: inf

>  <TORSDO>
F 3

$$$$
