MODEL 1
REMARK VINA RESULT:      -3.6      0.000      0.000
REMARK SMILES NCCc1c[nH]c2c(F)cccc12
REMARK SMILES IDX 3 1 4 4 11 5 12 6 10 7 13 9 8 11 7 13 9 14 6 15 5 16 2 19
REMARK SMILES IDX 1 22
REMARK H PARENT 3 2 3 3 11 8 12 10 10 12 6 17 5 18 2 20 2 21 1 23 1 24
REMARK Flexibility Score: inf
ROOT
ATOM      1  C   UNL     1       4.899  -1.675   4.547  1.00  0.00    -0.013 C 
ATOM      2  H   UNL     1       5.992  -1.746   4.489  1.00  0.00     0.033 H 
ATOM      3  H   UNL     1       4.528  -1.963   3.556  1.00  0.00     0.033 H 
ENDROOT
BRANCH   1   4
ATOM      4  C   UNL     1       4.528  -0.253   4.835  1.00  0.00    -0.021 A 
ATOM      5  C   UNL     1       5.917   2.427   2.469  1.00  0.00    -0.059 A 
ATOM      6  C   UNL     1       5.724   1.123   2.947  1.00  0.00    -0.052 A 
ATOM      7  C   UNL     1       5.328   3.512   3.114  1.00  0.00    -0.024 A 
ATOM      8  H   UNL     1       6.532   2.590   1.589  1.00  0.00     0.062 H 
ATOM      9  C   UNL     1       4.926   0.906   4.092  1.00  0.00     0.006 A 
ATOM     10  H   UNL     1       6.190   0.285   2.437  1.00  0.00     0.063 H 
ATOM     11  C   UNL     1       4.539   3.313   4.244  1.00  0.00     0.147 A 
ATOM     12  H   UNL     1       5.478   4.521   2.743  1.00  0.00     0.065 H 
ATOM     13  C   UNL     1       4.350   2.014   4.714  1.00  0.00     0.082 A 
ATOM     14  F   UNL     1       3.974   4.358   4.863  1.00  0.00    -0.205 F 
ATOM     15  N   UNL     1       3.634   1.555   5.791  1.00  0.00    -0.359 N 
ATOM     16  C   UNL     1       3.727   0.192   5.870  1.00  0.00     0.005 A 
ATOM     17  H   UNL     1       3.121   2.149   6.429  1.00  0.00     0.166 HD
ATOM     18  H   UNL     1       3.229  -0.349   6.663  1.00  0.00     0.082 H 
ENDBRANCH   1   4
BRANCH   1  19
ATOM     19  C   UNL     1       4.403  -2.673   5.604  1.00  0.00    -0.004 C 
ATOM     20  H   UNL     1       5.270  -3.089   6.128  1.00  0.00     0.043 H 
ATOM     21  H   UNL     1       3.784  -2.165   6.352  1.00  0.00     0.043 H 
BRANCH  19  22
ATOM     22  N   UNL     1       3.642  -3.788   5.035  1.00  0.00    -0.330 NA
ATOM     23  H   UNL     1       3.059  -3.455   4.270  1.00  0.00     0.118 HD
ATOM     24  H   UNL     1       4.286  -4.472   4.640  1.00  0.00     0.118 HD
ENDBRANCH  19  22
ENDBRANCH   1  19
TORSDOF 3
ENDMDL
MODEL 2
REMARK VINA RESULT:      -3.6      4.345      7.047
REMARK SMILES NCCc1c[nH]c2c(F)cccc12
REMARK SMILES IDX 3 1 4 4 11 5 12 6 10 7 13 9 8 11 7 13 9 14 6 15 5 16 2 19
REMARK SMILES IDX 1 22
REMARK H PARENT 3 2 3 3 11 8 12 10 10 12 6 17 5 18 2 20 2 21 1 23 1 24
REMARK Flexibility Score: inf
ROOT
ATOM      1  C   UNL     1       4.870  -1.800   6.090  1.00  0.00    -0.013 C 
ATOM      2  H   UNL     1       5.943  -1.944   6.270  1.00  0.00     0.033 H 
ATOM      3  H   UNL     1       4.559  -0.997   6.770  1.00  0.00     0.033 H 
ENDROOT
BRANCH   1   4
ATOM      4  C   UNL     1       4.153  -3.067   6.439  1.00  0.00    -0.021 A 
ATOM      5  C   UNL     1       0.709  -2.727   8.091  1.00  0.00    -0.059 A 
ATOM      6  C   UNL     1       1.900  -2.260   7.517  1.00  0.00    -0.052 A 
ATOM      7  C   UNL     1       0.467  -4.093   8.211  1.00  0.00    -0.024 A 
ATOM      8  H   UNL     1      -0.031  -2.013   8.446  1.00  0.00     0.062 H 
ATOM      9  C   UNL     1       2.865  -3.184   7.057  1.00  0.00     0.006 A 
ATOM     10  H   UNL     1       2.078  -1.192   7.431  1.00  0.00     0.063 H 
ATOM     11  C   UNL     1       1.409  -5.014   7.762  1.00  0.00     0.147 A 
ATOM     12  H   UNL     1      -0.455  -4.452   8.656  1.00  0.00     0.065 H 
ATOM     13  C   UNL     1       2.592  -4.545   7.191  1.00  0.00     0.082 A 
ATOM     14  F   UNL     1       1.175  -6.328   7.879  1.00  0.00    -0.205 F 
ATOM     15  N   UNL     1       3.665  -5.232   6.682  1.00  0.00    -0.359 N 
ATOM     16  C   UNL     1       4.607  -4.354   6.219  1.00  0.00     0.005 A 
ATOM     17  H   UNL     1       3.739  -6.240   6.661  1.00  0.00     0.166 HD
ATOM     18  H   UNL     1       5.531  -4.714   5.785  1.00  0.00     0.082 H 
ENDBRANCH   1   4
BRANCH   1  19
ATOM     19  C   UNL     1       4.678  -1.358   4.632  1.00  0.00    -0.004 C 
ATOM     20  H   UNL     1       5.290  -1.998   3.988  1.00  0.00     0.043 H 
ATOM     21  H   UNL     1       3.634  -1.490   4.324  1.00  0.00     0.043 H 
BRANCH  19  22
ATOM     22  N   UNL     1       5.073   0.032   4.392  1.00  0.00    -0.330 NA
ATOM     23  H   UNL     1       5.372   0.463   5.264  1.00  0.00     0.118 HD
ATOM     24  H   UNL     1       5.873   0.054   3.761  1.00  0.00     0.118 HD
ENDBRANCH  19  22
ENDBRANCH   1  19
TORSDOF 3
ENDMDL
MODEL 3
REMARK VINA RESULT:      -3.5      7.852      8.955
REMARK SMILES NCCc1c[nH]c2c(F)cccc12
REMARK SMILES IDX 3 1 4 4 11 5 12 6 10 7 13 9 8 11 7 13 9 14 6 15 5 16 2 19
REMARK SMILES IDX 1 22
REMARK H PARENT 3 2 3 3 11 8 12 10 10 12 6 17 5 18 2 20 2 21 1 23 1 24
REMARK Flexibility Score: inf
ROOT
ATOM      1  C   UNL     1       0.980  -3.523  11.639  1.00  0.00    -0.013 C 
ATOM      2  H   UNL     1      -0.078  -3.755  11.817  1.00  0.00     0.033 H 
ATOM      3  H   UNL     1       1.532  -4.003  12.458  1.00  0.00     0.033 H 
ENDROOT
BRANCH   1   4
ATOM      4  C   UNL     1       1.161  -2.038  11.707  1.00  0.00    -0.021 A 
ATOM      5  C   UNL     1      -1.844   0.034  12.887  1.00  0.00    -0.059 A 
ATOM      6  C   UNL     1      -1.156  -1.143  12.557  1.00  0.00    -0.052 A 
ATOM      7  C   UNL     1      -1.217   1.273  12.786  1.00  0.00    -0.024 A 
ATOM      8  H   UNL     1      -2.875  -0.025  13.224  1.00  0.00     0.062 H 
ATOM      9  C   UNL     1       0.184  -1.071  12.117  1.00  0.00     0.006 A 
ATOM     10  H   UNL     1      -1.656  -2.103  12.638  1.00  0.00     0.063 H 
ATOM     11  C   UNL     1       0.104   1.358  12.353  1.00  0.00     0.147 A 
ATOM     12  H   UNL     1      -1.751   2.183  13.041  1.00  0.00     0.065 H 
ATOM     13  C   UNL     1       0.783   0.185  12.026  1.00  0.00     0.082 A 
ATOM     14  F   UNL     1       0.705   2.552  12.255  1.00  0.00    -0.205 F 
ATOM     15  N   UNL     1       2.067  -0.002  11.579  1.00  0.00    -0.359 N 
ATOM     16  C   UNL     1       2.308  -1.336  11.391  1.00  0.00     0.005 A 
ATOM     17  H   UNL     1       2.727   0.746  11.412  1.00  0.00     0.166 HD
ATOM     18  H   UNL     1       3.270  -1.676  11.032  1.00  0.00     0.082 H 
ENDBRANCH   1   4
BRANCH   1  19
ATOM     19  C   UNL     1       1.394  -4.139  10.295  1.00  0.00    -0.004 C 
ATOM     20  H   UNL     1       2.443  -3.887  10.101  1.00  0.00     0.043 H 
ATOM     21  H   UNL     1       1.324  -5.232  10.335  1.00  0.00     0.043 H 
BRANCH  19  22
ATOM     22  N   UNL     1       0.598  -3.652   9.166  1.00  0.00    -0.330 NA
ATOM     23  H   UNL     1      -0.058  -2.943   9.485  1.00  0.00     0.118 HD
ATOM     24  H   UNL     1       1.210  -3.204   8.487  1.00  0.00     0.118 HD
ENDBRANCH  19  22
ENDBRANCH   1  19
TORSDOF 3
ENDMDL
