./dock_file/liganddock202312151433/7Fluorotryptamine_PROamberH_GPCR5A_AF_selefeatureTOP200_color/7Fluorotryptamine_PROamberH_GPCR5A_AF_selefeatureTOP200_color_out_6.pdbqt
 OpenBabel12152314333D

 24 25  0  0  0  0  0  0  0  0999 V2000
   15.1660   12.9220  -17.5540 C   0  0  0  0  0  0  0  0  0  0  0  0
   15.6860   13.5730  -16.8390 H   0  0  0  0  0  0  0  0  0  0  0  0
   15.9480   12.3120  -18.0240 H   0  0  0  0  0  0  0  0  0  0  0  0
   14.5030   13.7810  -18.5860 C   0  0  0  0  0  0  0  0  0  0  0  0
   16.7470   15.2880  -21.3070 C   0  0  0  0  0  0  0  0  0  0  0  0
   16.4640   14.5290  -20.1620 C   0  0  0  0  0  0  0  0  0  0  0  0
   15.7300   15.9580  -21.9810 C   0  0  0  0  0  0  0  0  0  0  0  0
   17.7700   15.3530  -21.6680 H   0  0  0  0  0  0  0  0  0  0  0  0
   15.1360   14.4430  -19.6890 C   0  0  0  0  0  0  0  0  0  0  0  0
   17.2660   14.0120  -19.6440 H   0  0  0  0  0  0  0  0  0  0  0  0
   14.4170   15.8830  -21.5260 C   0  0  0  0  0  0  0  0  0  0  0  0
   15.9510   16.5460  -22.8670 H   0  0  0  0  0  0  0  0  0  0  0  0
   14.1410   15.1260  -20.3880 C   0  0  0  0  0  0  0  0  0  0  0  0
   13.4400   16.5300  -22.1760 F   0  0  0  0  0  0  0  0  0  0  0  0
   12.9520   14.8960  -19.7410 N   0  0  0  0  0  0  0  0  0  0  0  0
   13.1570   14.0820  -18.6600 C   0  0  0  0  0  0  0  0  0  0  0  0
   12.0630   15.2820  -20.0290 H   0  0  0  0  0  0  0  0  0  0  0  0
   12.3310   13.7950  -18.0230 H   0  0  0  0  0  0  0  0  0  0  0  0
   14.1940   12.0230  -16.7750 C   0  0  0  0  0  0  0  0  0  0  0  0
   13.1700   12.3540  -16.9800 H   0  0  0  0  0  0  0  0  0  0  0  0
   14.2760   10.9840  -17.1140 H   0  0  0  0  0  0  0  0  0  0  0  0
   14.4010   12.0680  -15.3260 N   0  0  0  0  0  0  0  0  0  0  0  0
   13.6350   12.5710  -14.8820 H   0  0  0  0  0  0  0  0  0  0  0  0
   14.3880   11.1200  -14.9510 H   0  0  0  0  0  0  0  0  0  0  0  0
  1  2  1  0  0  0  0
  1 19  1  0  0  0  0
  3  1  1  0  0  0  0
  4  1  1  0  0  0  0
  5  6  2  0  0  0  0
  6  9  1  0  0  0  0
  6 10  1  0  0  0  0
  7 11  2  0  0  0  0
  7  5  1  0  0  0  0
  8  5  1  0  0  0  0
  9  4  1  0  0  0  0
 11 13  1  0  0  0  0
 12  7  1  0  0  0  0
 13 15  1  0  0  0  0
 13  9  2  0  0  0  0
 14 11  1  0  0  0  0
 15 16  1  0  0  0  0
 16  4  2  0  0  0  0
 16 18  1  0  0  0  0
 17 15  1  0  0  0  0
 19 22  1  0  0  0  0
 20 19  1  0  0  0  0
 21 19  1  0  0  0  0
 22 24  1  0  0  0  0
 22 23  1  0  0  0  0
M  END
>  <MODEL>
1

>  <REMARK>
 VINA RESULT:      -4.5      0.000      0.000
 SMILES NCCc1c[nH]c2c(F)cccc12
 SMILES IDX 3 1 4 4 11 5 12 6 10 7 13 9 8 11 7 13 9 14 6 15 5 16 2 19
 SMILES IDX 1 22
 H PARENT 3 2 3 3 11 8 12 10 10 12 6 17 5 18 2 20 2 21 1 23 1 24
 Flexibility Score: inf

>  <TORSDO>
F 3

$$$$
./dock_file/liganddock202312151433/7Fluorotryptamine_PROamberH_GPCR5A_AF_selefeatureTOP200_color/7Fluorotryptamine_PROamberH_GPCR5A_AF_selefeatureTOP200_color_out_6.pdbqt
 OpenBabel12152314333D

 24 25  0  0  0  0  0  0  0  0999 V2000
   11.1410   11.0050  -21.0670 C   0  0  0  0  0  0  0  0  0  0  0  0
   11.4560   10.5170  -21.9990 H   0  0  0  0  0  0  0  0  0  0  0  0
   11.0580   12.0740  -21.3030 H   0  0  0  0  0  0  0  0  0  0  0  0
   12.2060   10.7940  -20.0350 C   0  0  0  0  0  0  0  0  0  0  0  0
   13.3670   13.8760  -18.0690 C   0  0  0  0  0  0  0  0  0  0  0  0
   12.6060   13.1820  -19.0210 C   0  0  0  0  0  0  0  0  0  0  0  0
   14.3020   13.2060  -17.2850 C   0  0  0  0  0  0  0  0  0  0  0  0
   13.2240   14.9460  -17.9450 H   0  0  0  0  0  0  0  0  0  0  0  0
   12.7890   11.7910  -19.1860 C   0  0  0  0  0  0  0  0  0  0  0  0
   11.8810   13.7160  -19.6280 H   0  0  0  0  0  0  0  0  0  0  0  0
   14.4930   11.8350  -17.4370 C   0  0  0  0  0  0  0  0  0  0  0  0
   14.8910   13.7450  -16.5490 H   0  0  0  0  0  0  0  0  0  0  0  0
   13.7340   11.1500  -18.3850 C   0  0  0  0  0  0  0  0  0  0  0  0
   15.3950   11.1930  -16.6820 F   0  0  0  0  0  0  0  0  0  0  0  0
   13.7320    9.8220  -18.7290 N   0  0  0  0  0  0  0  0  0  0  0  0
   12.8110    9.5940  -19.7150 C   0  0  0  0  0  0  0  0  0  0  0  0
   14.3320    9.1240  -18.3090 H   0  0  0  0  0  0  0  0  0  0  0  0
   12.6720    8.6000  -20.1200 H   0  0  0  0  0  0  0  0  0  0  0  0
    9.7680   10.4470  -20.6660 C   0  0  0  0  0  0  0  0  0  0  0  0
    9.0510   10.6750  -21.4630 H   0  0  0  0  0  0  0  0  0  0  0  0
    9.8100    9.3560  -20.5680 H   0  0  0  0  0  0  0  0  0  0  0  0
    9.2530   11.0180  -19.4200 N   0  0  0  0  0  0  0  0  0  0  0  0
    8.5290   11.7020  -19.6250 H   0  0  0  0  0  0  0  0  0  0  0  0
    8.8170   10.2830  -18.8650 H   0  0  0  0  0  0  0  0  0  0  0  0
  1 19  1  0  0  0  0
  1  4  1  0  0  0  0
  2  1  1  0  0  0  0
  3  1  1  0  0  0  0
  4 16  2  0  0  0  0
  4  9  1  0  0  0  0
  5  8  1  0  0  0  0
  5  7  2  0  0  0  0
  6  5  1  0  0  0  0
  7 12  1  0  0  0  0
  9  6  2  0  0  0  0
  9 13  1  0  0  0  0
 10  6  1  0  0  0  0
 11  7  1  0  0  0  0
 11 14  1  0  0  0  0
 13 11  2  0  0  0  0
 15 13  1  0  0  0  0
 15 17  1  0  0  0  0
 16 15  1  0  0  0  0
 18 16  1  0  0  0  0
 19 21  1  0  0  0  0
 19 22  1  0  0  0  0
 20 19  1  0  0  0  0
 22 24  1  0  0  0  0
 23 22  1  0  0  0  0
M  END
>  <REMARK>
 VINA RESULT:      -4.3      3.965      5.412
 SMILES NCCc1c[nH]c2c(F)cccc12
 SMILES IDX 3 1 4 4 11 5 12 6 10 7 13 9 8 11 7 13 9 14 6 15 5 16 2 19
 SMILES IDX 1 22
 H PARENT 3 2 3 3 11 8 12 10 10 12 6 17 5 18 2 20 2 21 1 23 1 24
 Flexibility Score: inf

>  <TORSDO>
F 3

$$$$
./dock_file/liganddock202312151433/7Fluorotryptamine_PROamberH_GPCR5A_AF_selefeatureTOP200_color/7Fluorotryptamine_PROamberH_GPCR5A_AF_selefeatureTOP200_color_out_6.pdbqt
 OpenBabel12152314333D

 24 25  0  0  0  0  0  0  0  0999 V2000
   14.0380   12.1690  -17.2460 C   0  0  0  0  0  0  0  0  0  0  0  0
   13.1890   11.9340  -16.5920 H   0  0  0  0  0  0  0  0  0  0  0  0
   14.5690   12.9970  -16.7610 H   0  0  0  0  0  0  0  0  0  0  0  0
   13.5080   12.6140  -18.5740 C   0  0  0  0  0  0  0  0  0  0  0  0
   15.4230   15.4100  -20.3710 C   0  0  0  0  0  0  0  0  0  0  0  0
   15.1660   14.5020  -19.3330 C   0  0  0  0  0  0  0  0  0  0  0  0
   14.5930   15.4630  -21.4870 C   0  0  0  0  0  0  0  0  0  0  0  0
   16.2780   16.0770  -20.3000 H   0  0  0  0  0  0  0  0  0  0  0  0
   14.0560   13.6340  -19.4200 C   0  0  0  0  0  0  0  0  0  0  0  0
   15.8200   14.4720  -18.4660 H   0  0  0  0  0  0  0  0  0  0  0  0
   13.4950   14.6130  -21.5860 C   0  0  0  0  0  0  0  0  0  0  0  0
   14.7930   16.1660  -22.2890 H   0  0  0  0  0  0  0  0  0  0  0  0
   13.2440   13.7120  -20.5520 C   0  0  0  0  0  0  0  0  0  0  0  0
   12.6970   14.6660  -22.6610 F   0  0  0  0  0  0  0  0  0  0  0  0
   12.2430   12.7850  -20.4050 N   0  0  0  0  0  0  0  0  0  0  0  0
   12.3960   12.1130  -19.2230 C   0  0  0  0  0  0  0  0  0  0  0  0
   11.5040   12.6340  -21.0790 H   0  0  0  0  0  0  0  0  0  0  0  0
   11.6930   11.3430  -18.9320 H   0  0  0  0  0  0  0  0  0  0  0  0
   14.9470   10.9340  -17.3230 C   0  0  0  0  0  0  0  0  0  0  0  0
   14.6570   10.2350  -16.5300 H   0  0  0  0  0  0  0  0  0  0  0  0
   14.8130   10.4150  -18.2790 H   0  0  0  0  0  0  0  0  0  0  0  0
   16.3670   11.2490  -17.1480 N   0  0  0  0  0  0  0  0  0  0  0  0
   16.8940   10.3940  -16.9820 H   0  0  0  0  0  0  0  0  0  0  0  0
   16.7320   11.6600  -18.0060 H   0  0  0  0  0  0  0  0  0  0  0  0
  1  3  1  0  0  0  0
  1  2  1  0  0  0  0
  4  1  1  0  0  0  0
  5  8  1  0  0  0  0
  5  6  2  0  0  0  0
  6 10  1  0  0  0  0
  7  5  1  0  0  0  0
  9  6  1  0  0  0  0
  9  4  1  0  0  0  0
 11  7  2  0  0  0  0
 11 13  1  0  0  0  0
 12  7  1  0  0  0  0
 13 15  1  0  0  0  0
 13  9  2  0  0  0  0
 14 11  1  0  0  0  0
 15 16  1  0  0  0  0
 16 18  1  0  0  0  0
 16  4  2  0  0  0  0
 17 15  1  0  0  0  0
 19  1  1  0  0  0  0
 19 22  1  0  0  0  0
 19 20  1  0  0  0  0
 21 19  1  0  0  0  0
 22 23  1  0  0  0  0
 24 22  1  0  0  0  0
M  END
>  <REMARK>
 VINA RESULT:      -4.1      1.631      1.811
 SMILES NCCc1c[nH]c2c(F)cccc12
 SMILES IDX 3 1 4 4 11 5 12 6 10 7 13 9 8 11 7 13 9 14 6 15 5 16 2 19
 SMILES IDX 1 22
 H PARENT 3 2 3 3 11 8 12 10 10 12 6 17 5 18 2 20 2 21 1 23 1 24
 Flexibility Score: inf

>  <TORSDO>
F 3

$$$$
