MODEL 1
REMARK VINA RESULT:      -4.6      0.000      0.000
REMARK SMILES NCCc1c[nH]c2c(F)cccc12
REMARK SMILES IDX 3 1 4 4 11 5 12 6 10 7 13 9 8 11 7 13 9 14 6 15 5 16 2 19
REMARK SMILES IDX 1 22
REMARK H PARENT 3 2 3 3 11 8 12 10 10 12 6 17 5 18 2 20 2 21 1 23 1 24
REMARK Flexibility Score: inf
ROOT
ATOM      1  C   UNL     1     -24.015  -1.116  21.523  1.00  0.00    -0.013 C 
ATOM      2  H   UNL     1     -24.506  -0.699  22.412  1.00  0.00     0.033 H 
ATOM      3  H   UNL     1     -23.662  -0.252  20.945  1.00  0.00     0.033 H 
ENDROOT
BRANCH   1   4
ATOM      4  C   UNL     1     -25.033  -1.876  20.729  1.00  0.00    -0.021 A 
ATOM      5  C   UNL     1     -24.173  -2.649  17.072  1.00  0.00    -0.059 A 
ATOM      6  C   UNL     1     -23.948  -2.120  18.352  1.00  0.00    -0.052 A 
ATOM      7  C   UNL     1     -25.354  -3.327  16.783  1.00  0.00    -0.024 A 
ATOM      8  H   UNL     1     -23.417  -2.527  16.301  1.00  0.00     0.062 H 
ATOM      9  C   UNL     1     -24.928  -2.275  19.356  1.00  0.00     0.006 A 
ATOM     10  H   UNL     1     -23.023  -1.593  18.564  1.00  0.00     0.063 H 
ATOM     11  C   UNL     1     -26.330  -3.487  17.764  1.00  0.00     0.147 A 
ATOM     12  H   UNL     1     -25.527  -3.735  15.792  1.00  0.00     0.065 H 
ATOM     13  C   UNL     1     -26.101  -2.959  19.034  1.00  0.00     0.082 A 
ATOM     14  F   UNL     1     -27.466  -4.138  17.483  1.00  0.00    -0.205 F 
ATOM     15  N   UNL     1     -26.889  -2.976  20.158  1.00  0.00    -0.359 N 
ATOM     16  C   UNL     1     -26.254  -2.334  21.186  1.00  0.00     0.005 A 
ATOM     17  H   UNL     1     -27.806  -3.400  20.204  1.00  0.00     0.166 HD
ATOM     18  H   UNL     1     -26.727  -2.242  22.154  1.00  0.00     0.082 H 
ENDBRANCH   1   4
BRANCH   1  19
ATOM     19  C   UNL     1     -22.821  -1.966  21.980  1.00  0.00    -0.004 C 
ATOM     20  H   UNL     1     -22.627  -1.758  23.038  1.00  0.00     0.043 H 
ATOM     21  H   UNL     1     -23.055  -3.034  21.896  1.00  0.00     0.043 H 
BRANCH  19  22
ATOM     22  N   UNL     1     -21.593  -1.688  21.233  1.00  0.00    -0.330 NA
ATOM     23  H   UNL     1     -20.819  -2.219  21.628  1.00  0.00     0.118 HD
ATOM     24  H   UNL     1     -21.703  -1.999  20.269  1.00  0.00     0.118 HD
ENDBRANCH  19  22
ENDBRANCH   1  19
TORSDOF 3
ENDMDL
MODEL 2
REMARK VINA RESULT:      -4.5      2.129      2.710
REMARK SMILES NCCc1c[nH]c2c(F)cccc12
REMARK SMILES IDX 3 1 4 4 11 5 12 6 10 7 13 9 8 11 7 13 9 14 6 15 5 16 2 19
REMARK SMILES IDX 1 22
REMARK H PARENT 3 2 3 3 11 8 12 10 10 12 6 17 5 18 2 20 2 21 1 23 1 24
REMARK Flexibility Score: inf
ROOT
ATOM      1  C   UNL     1     -26.368  -3.748  21.677  1.00  0.00    -0.013 C 
ATOM      2  H   UNL     1     -25.324  -3.724  22.014  1.00  0.00     0.033 H 
ATOM      3  H   UNL     1     -26.803  -4.655  22.116  1.00  0.00     0.033 H 
ENDROOT
BRANCH   1   4
ATOM      4  C   UNL     1     -26.384  -3.849  20.183  1.00  0.00    -0.021 A 
ATOM      5  C   UNL     1     -23.685  -1.907  18.271  1.00  0.00    -0.059 A 
ATOM      6  C   UNL     1     -24.367  -2.358  19.411  1.00  0.00    -0.052 A 
ATOM      7  C   UNL     1     -24.096  -2.296  16.999  1.00  0.00    -0.024 A 
ATOM      8  H   UNL     1     -22.830  -1.246  18.385  1.00  0.00     0.062 H 
ATOM      9  C   UNL     1     -25.480  -3.215  19.269  1.00  0.00     0.006 A 
ATOM     10  H   UNL     1     -24.037  -2.046  20.397  1.00  0.00     0.063 H 
ATOM     11  C   UNL     1     -25.193  -3.141  16.844  1.00  0.00     0.147 A 
ATOM     12  H   UNL     1     -23.568  -1.945  16.118  1.00  0.00     0.065 H 
ATOM     13  C   UNL     1     -25.866  -3.587  17.980  1.00  0.00     0.082 A 
ATOM     14  F   UNL     1     -25.587  -3.514  15.619  1.00  0.00    -0.205 F 
ATOM     15  N   UNL     1     -26.959  -4.408  18.100  1.00  0.00    -0.359 N 
ATOM     16  C   UNL     1     -27.275  -4.579  19.420  1.00  0.00     0.005 A 
ATOM     17  H   UNL     1     -27.452  -4.817  17.317  1.00  0.00     0.166 HD
ATOM     18  H   UNL     1     -28.118  -5.194  19.709  1.00  0.00     0.082 H 
ENDBRANCH   1   4
BRANCH   1  19
ATOM     19  C   UNL     1     -27.083  -2.504  22.224  1.00  0.00    -0.004 C 
ATOM     20  H   UNL     1     -27.489  -1.934  21.381  1.00  0.00     0.043 H 
ATOM     21  H   UNL     1     -27.929  -2.794  22.858  1.00  0.00     0.043 H 
BRANCH  19  22
ATOM     22  N   UNL     1     -26.201  -1.617  22.985  1.00  0.00    -0.330 NA
ATOM     23  H   UNL     1     -26.107  -1.957  23.939  1.00  0.00     0.118 HD
ATOM     24  H   UNL     1     -25.269  -1.630  22.573  1.00  0.00     0.118 HD
ENDBRANCH  19  22
ENDBRANCH   1  19
TORSDOF 3
ENDMDL
MODEL 3
REMARK VINA RESULT:      -4.5      2.344      4.313
REMARK SMILES NCCc1c[nH]c2c(F)cccc12
REMARK SMILES IDX 3 1 4 4 11 5 12 6 10 7 13 9 8 11 7 13 9 14 6 15 5 16 2 19
REMARK SMILES IDX 1 22
REMARK H PARENT 3 2 3 3 11 8 12 10 10 12 6 17 5 18 2 20 2 21 1 23 1 24
REMARK Flexibility Score: inf
ROOT
ATOM      1  C   UNL     1     -24.381  -2.800  17.174  1.00  0.00    -0.013 C 
ATOM      2  H   UNL     1     -23.648  -3.616  17.210  1.00  0.00     0.033 H 
ATOM      3  H   UNL     1     -23.796  -1.872  17.206  1.00  0.00     0.033 H 
ENDROOT
BRANCH   1   4
ATOM      4  C   UNL     1     -25.257  -2.892  18.385  1.00  0.00    -0.021 A 
ATOM      5  C   UNL     1     -24.000  -1.184  21.581  1.00  0.00    -0.059 A 
ATOM      6  C   UNL     1     -23.938  -1.579  20.237  1.00  0.00    -0.052 A 
ATOM      7  C   UNL     1     -25.093  -1.528  22.372  1.00  0.00    -0.024 A 
ATOM      8  H   UNL     1     -23.185  -0.604  22.008  1.00  0.00     0.062 H 
ATOM      9  C   UNL     1     -24.994  -2.333  19.680  1.00  0.00     0.006 A 
ATOM     10  H   UNL     1     -23.079  -1.306  19.632  1.00  0.00     0.063 H 
ATOM     11  C   UNL     1     -26.141  -2.271  21.835  1.00  0.00     0.147 A 
ATOM     12  H   UNL     1     -25.139  -1.221  23.412  1.00  0.00     0.065 H 
ATOM     13  C   UNL     1     -26.075  -2.661  20.498  1.00  0.00     0.082 A 
ATOM     14  F   UNL     1     -27.192  -2.602  22.598  1.00  0.00    -0.205 F 
ATOM     15  N   UNL     1     -26.958  -3.390  19.741  1.00  0.00    -0.359 N 
ATOM     16  C   UNL     1     -26.481  -3.528  18.467  1.00  0.00     0.005 A 
ATOM     17  H   UNL     1     -27.830  -3.767  20.089  1.00  0.00     0.166 HD
ATOM     18  H   UNL     1     -27.042  -4.081  17.725  1.00  0.00     0.082 H 
ENDBRANCH   1   4
BRANCH   1  19
ATOM     19  C   UNL     1     -25.146  -2.893  15.846  1.00  0.00    -0.004 C 
ATOM     20  H   UNL     1     -24.715  -3.704  15.248  1.00  0.00     0.043 H 
ATOM     21  H   UNL     1     -26.198  -3.144  16.024  1.00  0.00     0.043 H 
BRANCH  19  22
ATOM     22  N   UNL     1     -25.079  -1.664  15.052  1.00  0.00    -0.330 NA
ATOM     23  H   UNL     1     -25.917  -1.106  15.206  1.00  0.00     0.118 HD
ATOM     24  H   UNL     1     -24.289  -1.101  15.363  1.00  0.00     0.118 HD
ENDBRANCH  19  22
ENDBRANCH   1  19
TORSDOF 3
ENDMDL
