./dock_file/liganddock202312151433/7Fluorotryptamine_PROamberH_GPCR5A_AF_selefeatureTOP200_color/7Fluorotryptamine_PROamberH_GPCR5A_AF_selefeatureTOP200_color_out_3.pdbqt
 OpenBabel12152314333D

 24 25  0  0  0  0  0  0  0  0999 V2000
   14.0460   -5.9660   -3.9350 C   0  0  0  0  0  0  0  0  0  0  0  0
   13.6240   -6.9050   -3.5550 H   0  0  0  0  0  0  0  0  0  0  0  0
   13.2040   -5.4160   -4.3750 H   0  0  0  0  0  0  0  0  0  0  0  0
   15.0510   -6.2900   -4.9980 C   0  0  0  0  0  0  0  0  0  0  0  0
   13.8820   -8.5350   -7.8800 C   0  0  0  0  0  0  0  0  0  0  0  0
   13.7420   -7.8200   -6.6810 C   0  0  0  0  0  0  0  0  0  0  0  0
   15.0960   -8.5420   -8.5620 C   0  0  0  0  0  0  0  0  0  0  0  0
   13.0340   -9.0870   -8.2770 H   0  0  0  0  0  0  0  0  0  0  0  0
   14.8410   -7.1020   -6.1600 C   0  0  0  0  0  0  0  0  0  0  0  0
   12.7900   -7.8240   -6.1570 H   0  0  0  0  0  0  0  0  0  0  0  0
   16.1880   -7.8390   -8.0600 C   0  0  0  0  0  0  0  0  0  0  0  0
   15.2030   -9.0960   -9.4890 H   0  0  0  0  0  0  0  0  0  0  0  0
   16.0420   -7.1310   -6.8680 C   0  0  0  0  0  0  0  0  0  0  0  0
   17.3550   -7.8490   -8.7170 F   0  0  0  0  0  0  0  0  0  0  0  0
   16.9490   -6.3720   -6.1700 N   0  0  0  0  0  0  0  0  0  0  0  0
   16.3620   -5.8550   -5.0470 C   0  0  0  0  0  0  0  0  0  0  0  0
   17.9090   -6.2290   -6.4530 H   0  0  0  0  0  0  0  0  0  0  0  0
   16.9270   -5.2330   -4.3670 H   0  0  0  0  0  0  0  0  0  0  0  0
   14.6260   -5.1790   -2.7510 C   0  0  0  0  0  0  0  0  0  0  0  0
   14.4860   -5.7670   -1.8370 H   0  0  0  0  0  0  0  0  0  0  0  0
   15.7050   -5.0290   -2.8790 H   0  0  0  0  0  0  0  0  0  0  0  0
   13.9860   -3.8770   -2.5520 N   0  0  0  0  0  0  0  0  0  0  0  0
   13.8200   -3.7200   -1.5610 H   0  0  0  0  0  0  0  0  0  0  0  0
   14.6130   -3.1380   -2.8670 H   0  0  0  0  0  0  0  0  0  0  0  0
  1  2  1  0  0  0  0
  1 19  1  0  0  0  0
  3  1  1  0  0  0  0
  4  1  1  0  0  0  0
  5  6  2  0  0  0  0
  6  9  1  0  0  0  0
  6 10  1  0  0  0  0
  7 11  2  0  0  0  0
  7  5  1  0  0  0  0
  8  5  1  0  0  0  0
  9  4  1  0  0  0  0
 11 13  1  0  0  0  0
 12  7  1  0  0  0  0
 13 15  1  0  0  0  0
 13  9  2  0  0  0  0
 14 11  1  0  0  0  0
 15 16  1  0  0  0  0
 16  4  2  0  0  0  0
 16 18  1  0  0  0  0
 17 15  1  0  0  0  0
 19 22  1  0  0  0  0
 19 20  1  0  0  0  0
 21 19  1  0  0  0  0
 22 23  1  0  0  0  0
 24 22  1  0  0  0  0
M  END
>  <MODEL>
1

>  <REMARK>
 VINA RESULT:      -5.5      0.000      0.000
 SMILES NCCc1c[nH]c2c(F)cccc12
 SMILES IDX 3 1 4 4 11 5 12 6 10 7 13 9 8 11 7 13 9 14 6 15 5 16 2 19
 SMILES IDX 1 22
 H PARENT 3 2 3 3 11 8 12 10 10 12 6 17 5 18 2 20 2 21 1 23 1 24
 Flexibility Score: inf

>  <TORSDO>
F 3

$$$$
./dock_file/liganddock202312151433/7Fluorotryptamine_PROamberH_GPCR5A_AF_selefeatureTOP200_color/7Fluorotryptamine_PROamberH_GPCR5A_AF_selefeatureTOP200_color_out_3.pdbqt
 OpenBabel12152314333D

 24 25  0  0  0  0  0  0  0  0999 V2000
   16.2170   -5.5530   -4.0890 C   0  0  0  0  0  0  0  0  0  0  0  0
   17.1510   -5.5690   -3.5120 H   0  0  0  0  0  0  0  0  0  0  0  0
   15.4990   -6.1470   -3.5100 H   0  0  0  0  0  0  0  0  0  0  0  0
   16.4650   -6.2050   -5.4140 C   0  0  0  0  0  0  0  0  0  0  0  0
   13.4980   -7.9900   -7.0640 C   0  0  0  0  0  0  0  0  0  0  0  0
   14.1470   -7.2500   -6.0650 C   0  0  0  0  0  0  0  0  0  0  0  0
   14.1890   -8.4050   -8.1990 C   0  0  0  0  0  0  0  0  0  0  0  0
   12.4470   -8.2410   -6.9490 H   0  0  0  0  0  0  0  0  0  0  0  0
   15.5130   -6.9220   -6.2100 C   0  0  0  0  0  0  0  0  0  0  0  0
   13.5970   -6.9330   -5.1840 H   0  0  0  0  0  0  0  0  0  0  0  0
   15.5360   -8.0900   -8.3560 C   0  0  0  0  0  0  0  0  0  0  0  0
   13.6860   -8.9780   -8.9720 H   0  0  0  0  0  0  0  0  0  0  0  0
   16.1760   -7.3540   -7.3590 C   0  0  0  0  0  0  0  0  0  0  0  0
   16.2000   -8.4920   -9.4480 F   0  0  0  0  0  0  0  0  0  0  0  0
   17.4760   -6.9230   -7.2700 N   0  0  0  0  0  0  0  0  0  0  0  0
   17.6600   -6.2240   -6.1080 C   0  0  0  0  0  0  0  0  0  0  0  0
   18.1860   -7.1050   -7.9670 H   0  0  0  0  0  0  0  0  0  0  0  0
   18.6290   -5.8100   -5.8620 H   0  0  0  0  0  0  0  0  0  0  0  0
   15.7350   -4.0990   -4.1920 C   0  0  0  0  0  0  0  0  0  0  0  0
   14.6390   -4.0930   -4.2020 H   0  0  0  0  0  0  0  0  0  0  0  0
   16.0560   -3.5240   -3.3160 H   0  0  0  0  0  0  0  0  0  0  0  0
   16.2000   -3.4190   -5.4040 N   0  0  0  0  0  0  0  0  0  0  0  0
   15.4080   -3.0160   -5.9000 H   0  0  0  0  0  0  0  0  0  0  0  0
   16.8120   -2.6470   -5.1460 H   0  0  0  0  0  0  0  0  0  0  0  0
  1  2  1  0  0  0  0
  1  3  1  0  0  0  0
  4  1  1  0  0  0  0
  5  8  1  0  0  0  0
  5  6  2  0  0  0  0
  6 10  1  0  0  0  0
  7  5  1  0  0  0  0
  9  6  1  0  0  0  0
  9  4  1  0  0  0  0
 11  7  2  0  0  0  0
 11 13  1  0  0  0  0
 12  7  1  0  0  0  0
 13 15  1  0  0  0  0
 13  9  2  0  0  0  0
 14 11  1  0  0  0  0
 15 16  1  0  0  0  0
 16 18  1  0  0  0  0
 16  4  2  0  0  0  0
 17 15  1  0  0  0  0
 19  1  1  0  0  0  0
 19 21  1  0  0  0  0
 20 19  1  0  0  0  0
 22 24  1  0  0  0  0
 22 19  1  0  0  0  0
 23 22  1  0  0  0  0
M  END
>  <REMARK>
 VINA RESULT:      -5.5      1.552      1.667
 SMILES NCCc1c[nH]c2c(F)cccc12
 SMILES IDX 3 1 4 4 11 5 12 6 10 7 13 9 8 11 7 13 9 14 6 15 5 16 2 19
 SMILES IDX 1 22
 H PARENT 3 2 3 3 11 8 12 10 10 12 6 17 5 18 2 20 2 21 1 23 1 24
 Flexibility Score: inf

>  <TORSDO>
F 3

$$$$
./dock_file/liganddock202312151433/7Fluorotryptamine_PROamberH_GPCR5A_AF_selefeatureTOP200_color/7Fluorotryptamine_PROamberH_GPCR5A_AF_selefeatureTOP200_color_out_3.pdbqt
 OpenBabel12152314333D

 24 25  0  0  0  0  0  0  0  0999 V2000
   17.8990   -5.3840   -5.7040 C   0  0  0  0  0  0  0  0  0  0  0  0
   18.6100   -5.8910   -6.3700 H   0  0  0  0  0  0  0  0  0  0  0  0
   18.3070   -5.4960   -4.6920 H   0  0  0  0  0  0  0  0  0  0  0  0
   16.5770   -6.0810   -5.7980 C   0  0  0  0  0  0  0  0  0  0  0  0
   15.9790   -8.2830   -8.8810 C   0  0  0  0  0  0  0  0  0  0  0  0
   16.7080   -7.4170   -8.0530 C   0  0  0  0  0  0  0  0  0  0  0  0
   14.6930   -8.6850   -8.5270 C   0  0  0  0  0  0  0  0  0  0  0  0
   16.4220   -8.6410   -9.8060 H   0  0  0  0  0  0  0  0  0  0  0  0
   16.1350   -6.9490   -6.8510 C   0  0  0  0  0  0  0  0  0  0  0  0
   17.7090   -7.1100   -8.3410 H   0  0  0  0  0  0  0  0  0  0  0  0
   14.1160   -8.2310   -7.3450 C   0  0  0  0  0  0  0  0  0  0  0  0
   14.1300   -9.3550   -9.1690 H   0  0  0  0  0  0  0  0  0  0  0  0
   14.8460   -7.3700   -6.5260 C   0  0  0  0  0  0  0  0  0  0  0  0
   12.8790   -8.6180   -7.0070 F   0  0  0  0  0  0  0  0  0  0  0  0
   14.5110   -6.7860   -5.3300 N   0  0  0  0  0  0  0  0  0  0  0  0
   15.5470   -6.0140   -4.8790 C   0  0  0  0  0  0  0  0  0  0  0  0
   13.6230   -6.9120   -4.8630 H   0  0  0  0  0  0  0  0  0  0  0  0
   15.4630   -5.4680   -3.9490 H   0  0  0  0  0  0  0  0  0  0  0  0
   17.8480   -3.8990   -6.0900 C   0  0  0  0  0  0  0  0  0  0  0  0
   16.9420   -3.7200   -6.6780 H   0  0  0  0  0  0  0  0  0  0  0  0
   17.7830   -3.2710   -5.1930 H   0  0  0  0  0  0  0  0  0  0  0  0
   18.9970   -3.4690   -6.8900 N   0  0  0  0  0  0  0  0  0  0  0  0
   19.8080   -3.3380   -6.2890 H   0  0  0  0  0  0  0  0  0  0  0  0
   19.2380   -4.1990   -7.5580 H   0  0  0  0  0  0  0  0  0  0  0  0
  1  3  1  0  0  0  0
  2  1  1  0  0  0  0
  4  1  1  0  0  0  0
  4 16  2  0  0  0  0
  5  7  2  0  0  0  0
  5  6  1  0  0  0  0
  6  9  2  0  0  0  0
  7 11  1  0  0  0  0
  8  5  1  0  0  0  0
  9 13  1  0  0  0  0
  9  4  1  0  0  0  0
 10  6  1  0  0  0  0
 11 14  1  0  0  0  0
 11 13  2  0  0  0  0
 12  7  1  0  0  0  0
 13 15  1  0  0  0  0
 15 16  1  0  0  0  0
 15 17  1  0  0  0  0
 16 18  1  0  0  0  0
 19  1  1  0  0  0  0
 19 21  1  0  0  0  0
 20 19  1  0  0  0  0
 22 23  1  0  0  0  0
 22 19  1  0  0  0  0
 24 22  1  0  0  0  0
M  END
>  <REMARK>
 VINA RESULT:      -5.4      2.132      3.339
 SMILES NCCc1c[nH]c2c(F)cccc12
 SMILES IDX 3 1 4 4 11 5 12 6 10 7 13 9 8 11 7 13 9 14 6 15 5 16 2 19
 SMILES IDX 1 22
 H PARENT 3 2 3 3 11 8 12 10 10 12 6 17 5 18 2 20 2 21 1 23 1 24
 Flexibility Score: inf

>  <TORSDO>
F 3

$$$$
