./dock_file/liganddock202312151433/7Fluorotryptamine_PROamberH_GPCR5A_AF_selefeatureTOP200_color/7Fluorotryptamine_PROamberH_GPCR5A_AF_selefeatureTOP200_color_out_7.pdbqt
 OpenBabel12152314333D

 24 25  0  0  0  0  0  0  0  0999 V2000
    8.0160    5.2700   -1.8240 C   0  0  0  0  0  0  0  0  0  0  0  0
    7.8430    4.1890   -1.9070 H   0  0  0  0  0  0  0  0  0  0  0  0
    7.3780    5.7330   -2.5870 H   0  0  0  0  0  0  0  0  0  0  0  0
    9.4560    5.5470   -2.1280 C   0  0  0  0  0  0  0  0  0  0  0  0
   11.2170    3.1620   -4.5610 C   0  0  0  0  0  0  0  0  0  0  0  0
   10.1390    3.6490   -3.8080 C   0  0  0  0  0  0  0  0  0  0  0  0
   12.4550    3.7990   -4.5220 C   0  0  0  0  0  0  0  0  0  0  0  0
   11.0830    2.2780   -5.1790 H   0  0  0  0  0  0  0  0  0  0  0  0
   10.3100    4.7970   -3.0020 C   0  0  0  0  0  0  0  0  0  0  0  0
    9.1800    3.1420   -3.8460 H   0  0  0  0  0  0  0  0  0  0  0  0
   12.6370    4.9310   -3.7320 C   0  0  0  0  0  0  0  0  0  0  0  0
   13.2880    3.4200   -5.1050 H   0  0  0  0  0  0  0  0  0  0  0  0
   11.5620    5.4110   -2.9850 C   0  0  0  0  0  0  0  0  0  0  0  0
   13.8290    5.5420   -3.6950 F   0  0  0  0  0  0  0  0  0  0  0  0
   11.4800    6.4880   -2.1380 N   0  0  0  0  0  0  0  0  0  0  0  0
   10.2160    6.5840   -1.6220 C   0  0  0  0  0  0  0  0  0  0  0  0
   12.2500    7.1090   -1.9300 H   0  0  0  0  0  0  0  0  0  0  0  0
    9.9640    7.3730   -0.9260 H   0  0  0  0  0  0  0  0  0  0  0  0
    7.5770    5.7260   -0.4250 C   0  0  0  0  0  0  0  0  0  0  0  0
    8.0000    5.0390    0.3170 H   0  0  0  0  0  0  0  0  0  0  0  0
    7.9710    6.7250   -0.2050 H   0  0  0  0  0  0  0  0  0  0  0  0
    6.1230    5.7390   -0.2500 N   0  0  0  0  0  0  0  0  0  0  0  0
    5.6990    5.0130   -0.8230 H   0  0  0  0  0  0  0  0  0  0  0  0
    5.8950    5.5220    0.7190 H   0  0  0  0  0  0  0  0  0  0  0  0
  1 19  1  0  0  0  0
  2  1  1  0  0  0  0
  3  1  1  0  0  0  0
  4  1  1  0  0  0  0
  4 16  2  0  0  0  0
  5  7  2  0  0  0  0
  5  6  1  0  0  0  0
  6  9  2  0  0  0  0
  7 11  1  0  0  0  0
  8  5  1  0  0  0  0
  9 13  1  0  0  0  0
  9  4  1  0  0  0  0
 10  6  1  0  0  0  0
 11 14  1  0  0  0  0
 11 13  2  0  0  0  0
 12  7  1  0  0  0  0
 13 15  1  0  0  0  0
 15 17  1  0  0  0  0
 15 16  1  0  0  0  0
 16 18  1  0  0  0  0
 19 22  1  0  0  0  0
 19 21  1  0  0  0  0
 19 20  1  0  0  0  0
 22 24  1  0  0  0  0
 23 22  1  0  0  0  0
M  END
>  <MODEL>
1

>  <REMARK>
 VINA RESULT:      -4.6      0.000      0.000
 SMILES NCCc1c[nH]c2c(F)cccc12
 SMILES IDX 3 1 4 4 11 5 12 6 10 7 13 9 8 11 7 13 9 14 6 15 5 16 2 19
 SMILES IDX 1 22
 H PARENT 3 2 3 3 11 8 12 10 10 12 6 17 5 18 2 20 2 21 1 23 1 24
 Flexibility Score: inf

>  <TORSDO>
F 3

$$$$
./dock_file/liganddock202312151433/7Fluorotryptamine_PROamberH_GPCR5A_AF_selefeatureTOP200_color/7Fluorotryptamine_PROamberH_GPCR5A_AF_selefeatureTOP200_color_out_7.pdbqt
 OpenBabel12152314333D

 24 25  0  0  0  0  0  0  0  0999 V2000
   11.8220    7.6210   -3.5840 C   0  0  0  0  0  0  0  0  0  0  0  0
   12.3410    7.6190   -2.6170 H   0  0  0  0  0  0  0  0  0  0  0  0
   11.1580    6.7470   -3.5670 H   0  0  0  0  0  0  0  0  0  0  0  0
   12.8400    7.4640   -4.6720 C   0  0  0  0  0  0  0  0  0  0  0  0
   15.8040    9.8980   -4.6530 C   0  0  0  0  0  0  0  0  0  0  0  0
   14.6040    9.3450   -4.1830 C   0  0  0  0  0  0  0  0  0  0  0  0
   16.4270    9.3800   -5.7850 C   0  0  0  0  0  0  0  0  0  0  0  0
   16.2480   10.7400   -4.1280 H   0  0  0  0  0  0  0  0  0  0  0  0
   14.0210    8.2530   -4.8630 C   0  0  0  0  0  0  0  0  0  0  0  0
   14.1260    9.7600   -3.3000 H   0  0  0  0  0  0  0  0  0  0  0  0
   15.8640    8.3030   -6.4650 C   0  0  0  0  0  0  0  0  0  0  0  0
   17.3560    9.8090   -6.1470 H   0  0  0  0  0  0  0  0  0  0  0  0
   14.6720    7.7570   -5.9930 C   0  0  0  0  0  0  0  0  0  0  0  0
   16.4660    7.8070   -7.5550 F   0  0  0  0  0  0  0  0  0  0  0  0
   13.9210    6.7140   -6.4750 N   0  0  0  0  0  0  0  0  0  0  0  0
   12.8210    6.5230   -5.6840 C   0  0  0  0  0  0  0  0  0  0  0  0
   14.1560    6.1760   -7.2980 H   0  0  0  0  0  0  0  0  0  0  0  0
   12.1060    5.7440   -5.9130 H   0  0  0  0  0  0  0  0  0  0  0  0
   10.9930    8.9090   -3.6890 C   0  0  0  0  0  0  0  0  0  0  0  0
   11.4590    9.6780   -3.0630 H   0  0  0  0  0  0  0  0  0  0  0  0
   10.9920    9.2830   -4.7190 H   0  0  0  0  0  0  0  0  0  0  0  0
    9.6080    8.7430   -3.2420 N   0  0  0  0  0  0  0  0  0  0  0  0
    9.2540    7.8360   -3.5400 H   0  0  0  0  0  0  0  0  0  0  0  0
    9.5750    8.7530   -2.2240 H   0  0  0  0  0  0  0  0  0  0  0  0
  1  3  1  0  0  0  0
  1  2  1  0  0  0  0
  4  1  1  0  0  0  0
  5  6  1  0  0  0  0
  5  8  1  0  0  0  0
  6 10  1  0  0  0  0
  7  5  2  0  0  0  0
  9  4  1  0  0  0  0
  9  6  2  0  0  0  0
 11 13  2  0  0  0  0
 11  7  1  0  0  0  0
 12  7  1  0  0  0  0
 13  9  1  0  0  0  0
 14 11  1  0  0  0  0
 15 13  1  0  0  0  0
 15 16  1  0  0  0  0
 16  4  2  0  0  0  0
 17 15  1  0  0  0  0
 18 16  1  0  0  0  0
 19  1  1  0  0  0  0
 19 22  1  0  0  0  0
 19 20  1  0  0  0  0
 21 19  1  0  0  0  0
 22 24  1  0  0  0  0
 23 22  1  0  0  0  0
M  END
>  <REMARK>
 VINA RESULT:      -4.5      4.378      5.768
 SMILES NCCc1c[nH]c2c(F)cccc12
 SMILES IDX 3 1 4 4 11 5 12 6 10 7 13 9 8 11 7 13 9 14 6 15 5 16 2 19
 SMILES IDX 1 22
 H PARENT 3 2 3 3 11 8 12 10 10 12 6 17 5 18 2 20 2 21 1 23 1 24
 Flexibility Score: inf

>  <TORSDO>
F 3

$$$$
./dock_file/liganddock202312151433/7Fluorotryptamine_PROamberH_GPCR5A_AF_selefeatureTOP200_color/7Fluorotryptamine_PROamberH_GPCR5A_AF_selefeatureTOP200_color_out_7.pdbqt
 OpenBabel12152314333D

 24 25  0  0  0  0  0  0  0  0999 V2000
   14.2430    7.0680   -4.8660 C   0  0  0  0  0  0  0  0  0  0  0  0
   14.6860    6.1360   -5.2410 H   0  0  0  0  0  0  0  0  0  0  0  0
   15.0300    7.5570   -4.2790 H   0  0  0  0  0  0  0  0  0  0  0  0
   13.0870    6.7230   -3.9790 C   0  0  0  0  0  0  0  0  0  0  0  0
   11.3310    3.3740   -4.6200 C   0  0  0  0  0  0  0  0  0  0  0  0
   12.2840    4.3790   -4.8440 C   0  0  0  0  0  0  0  0  0  0  0  0
   10.3880    3.5050   -3.6040 C   0  0  0  0  0  0  0  0  0  0  0  0
   11.3300    2.4860   -5.2480 H   0  0  0  0  0  0  0  0  0  0  0  0
   12.2870    5.5340   -4.0320 C   0  0  0  0  0  0  0  0  0  0  0  0
   13.0130    4.2650   -5.6410 H   0  0  0  0  0  0  0  0  0  0  0  0
   10.3790    4.6390   -2.7970 C   0  0  0  0  0  0  0  0  0  0  0  0
    9.6510    2.7270   -3.4330 H   0  0  0  0  0  0  0  0  0  0  0  0
   11.3290    5.6350   -3.0230 C   0  0  0  0  0  0  0  0  0  0  0  0
    9.4700    4.7640   -1.8210 F   0  0  0  0  0  0  0  0  0  0  0  0
   11.5310    6.8320   -2.3820 N   0  0  0  0  0  0  0  0  0  0  0  0
   12.5900    7.4910   -2.9430 C   0  0  0  0  0  0  0  0  0  0  0  0
   10.9680    7.1670   -1.6120 H   0  0  0  0  0  0  0  0  0  0  0  0
   12.8950    8.4600   -2.5710 H   0  0  0  0  0  0  0  0  0  0  0  0
   13.8640    7.9430   -6.0690 C   0  0  0  0  0  0  0  0  0  0  0  0
   13.4320    8.8800   -5.6990 H   0  0  0  0  0  0  0  0  0  0  0  0
   14.7550    8.2040   -6.6520 H   0  0  0  0  0  0  0  0  0  0  0  0
   12.8830    7.3140   -6.9570 N   0  0  0  0  0  0  0  0  0  0  0  0
   13.2560    7.2600   -7.9020 H   0  0  0  0  0  0  0  0  0  0  0  0
   12.7120    6.3580   -6.6510 H   0  0  0  0  0  0  0  0  0  0  0  0
  1  3  1  0  0  0  0
  1  4  1  0  0  0  0
  2  1  1  0  0  0  0
  4 16  2  0  0  0  0
  5  7  1  0  0  0  0
  6  5  2  0  0  0  0
  6  9  1  0  0  0  0
  7 12  1  0  0  0  0
  7 11  2  0  0  0  0
  8  5  1  0  0  0  0
  9  4  1  0  0  0  0
  9 13  2  0  0  0  0
 10  6  1  0  0  0  0
 11 14  1  0  0  0  0
 13 11  1  0  0  0  0
 13 15  1  0  0  0  0
 15 17  1  0  0  0  0
 16 18  1  0  0  0  0
 16 15  1  0  0  0  0
 19 20  1  0  0  0  0
 19  1  1  0  0  0  0
 21 19  1  0  0  0  0
 22 24  1  0  0  0  0
 22 19  1  0  0  0  0
 23 22  1  0  0  0  0
M  END
>  <REMARK>
 VINA RESULT:      -4.5      2.594      4.750
 SMILES NCCc1c[nH]c2c(F)cccc12
 SMILES IDX 3 1 4 4 11 5 12 6 10 7 13 9 8 11 7 13 9 14 6 15 5 16 2 19
 SMILES IDX 1 22
 H PARENT 3 2 3 3 11 8 12 10 10 12 6 17 5 18 2 20 2 21 1 23 1 24
 Flexibility Score: inf

>  <TORSDO>
F 3

$$$$
