./dock_file/liganddock202312151433/7Fluorotryptamine_PROamberH_GPCR5A_AF_selefeatureTOP200_color/7Fluorotryptamine_PROamberH_GPCR5A_AF_selefeatureTOP200_color_out_8.pdbqt
 OpenBabel12152314333D

 24 25  0  0  0  0  0  0  0  0999 V2000
   -2.5860    2.8480   15.8970 C   0  0  0  0  0  0  0  0  0  0  0  0
   -3.5590    2.5900   16.3330 H   0  0  0  0  0  0  0  0  0  0  0  0
   -1.8390    2.3090   16.4930 H   0  0  0  0  0  0  0  0  0  0  0  0
   -2.3780    4.3250   16.0370 C   0  0  0  0  0  0  0  0  0  0  0  0
   -5.5130    6.5330   16.0880 C   0  0  0  0  0  0  0  0  0  0  0  0
   -4.8040    5.3260   16.0140 C   0  0  0  0  0  0  0  0  0  0  0  0
   -4.8380    7.7430   16.2270 C   0  0  0  0  0  0  0  0  0  0  0  0
   -6.5990    6.5220   16.0350 H   0  0  0  0  0  0  0  0  0  0  0  0
   -3.3940    5.3360   16.0810 C   0  0  0  0  0  0  0  0  0  0  0  0
   -5.3420    4.3890   15.9040 H   0  0  0  0  0  0  0  0  0  0  0  0
   -3.4480    7.7680   16.2940 C   0  0  0  0  0  0  0  0  0  0  0  0
   -5.3890    8.6770   16.2830 H   0  0  0  0  0  0  0  0  0  0  0  0
   -2.7480    6.5650   16.2200 C   0  0  0  0  0  0  0  0  0  0  0  0
   -2.8010    8.9340   16.4270 F   0  0  0  0  0  0  0  0  0  0  0  0
   -1.3990    6.3190   16.2570 N   0  0  0  0  0  0  0  0  0  0  0  0
   -1.1640    4.9740   16.1560 C   0  0  0  0  0  0  0  0  0  0  0  0
   -0.6910    7.0360   16.3430 H   0  0  0  0  0  0  0  0  0  0  0  0
   -0.1530    4.5900   16.1610 H   0  0  0  0  0  0  0  0  0  0  0  0
   -2.5570    2.3520   14.4440 C   0  0  0  0  0  0  0  0  0  0  0  0
   -3.2940    2.9190   13.8650 H   0  0  0  0  0  0  0  0  0  0  0  0
   -1.5760    2.5380   13.9930 H   0  0  0  0  0  0  0  0  0  0  0  0
   -2.8790    0.9290   14.3130 N   0  0  0  0  0  0  0  0  0  0  0  0
   -2.0310    0.3730   14.3940 H   0  0  0  0  0  0  0  0  0  0  0  0
   -3.4910    0.6470   15.0770 H   0  0  0  0  0  0  0  0  0  0  0  0
  1  4  1  0  0  0  0
  1  2  1  0  0  0  0
  1  3  1  0  0  0  0
  4  9  1  0  0  0  0
  4 16  2  0  0  0  0
  5  7  2  0  0  0  0
  6  9  2  0  0  0  0
  6  5  1  0  0  0  0
  7 12  1  0  0  0  0
  7 11  1  0  0  0  0
  8  5  1  0  0  0  0
  9 13  1  0  0  0  0
 10  6  1  0  0  0  0
 11 14  1  0  0  0  0
 13 15  1  0  0  0  0
 13 11  2  0  0  0  0
 15 17  1  0  0  0  0
 16 18  1  0  0  0  0
 16 15  1  0  0  0  0
 19  1  1  0  0  0  0
 20 19  1  0  0  0  0
 21 19  1  0  0  0  0
 22 23  1  0  0  0  0
 22 19  1  0  0  0  0
 22 24  1  0  0  0  0
M  END
>  <MODEL>
1

>  <REMARK>
 VINA RESULT:      -5.1      0.000      0.000
 SMILES NCCc1c[nH]c2c(F)cccc12
 SMILES IDX 3 1 4 4 11 5 12 6 10 7 13 9 8 11 7 13 9 14 6 15 5 16 2 19
 SMILES IDX 1 22
 H PARENT 3 2 3 3 11 8 12 10 10 12 6 17 5 18 2 20 2 21 1 23 1 24
 Flexibility Score: inf

>  <TORSDO>
F 3

$$$$
./dock_file/liganddock202312151433/7Fluorotryptamine_PROamberH_GPCR5A_AF_selefeatureTOP200_color/7Fluorotryptamine_PROamberH_GPCR5A_AF_selefeatureTOP200_color_out_8.pdbqt
 OpenBabel12152314333D

 24 25  0  0  0  0  0  0  0  0999 V2000
   -1.4330    9.4070   16.2040 C   0  0  0  0  0  0  0  0  0  0  0  0
   -2.2870   10.0200   16.5190 H   0  0  0  0  0  0  0  0  0  0  0  0
   -1.2230    9.6990   15.1670 H   0  0  0  0  0  0  0  0  0  0  0  0
   -1.8370    7.9660   16.2530 C   0  0  0  0  0  0  0  0  0  0  0  0
   -5.5890    7.1960   16.0550 C   0  0  0  0  0  0  0  0  0  0  0  0
   -4.4550    8.0210   16.0830 C   0  0  0  0  0  0  0  0  0  0  0  0
   -5.4600    5.8120   16.1340 C   0  0  0  0  0  0  0  0  0  0  0  0
   -6.5760    7.6430   15.9700 H   0  0  0  0  0  0  0  0  0  0  0  0
   -3.1710    7.4440   16.1940 C   0  0  0  0  0  0  0  0  0  0  0  0
   -4.5700    9.0990   16.0220 H   0  0  0  0  0  0  0  0  0  0  0  0
   -4.2000    5.2300   16.2440 C   0  0  0  0  0  0  0  0  0  0  0  0
   -6.3380    5.1740   16.1120 H   0  0  0  0  0  0  0  0  0  0  0  0
   -3.0760    6.0550   16.2720 C   0  0  0  0  0  0  0  0  0  0  0  0
   -4.0780    3.8980   16.3220 F   0  0  0  0  0  0  0  0  0  0  0  0
   -1.7450    5.7390   16.3760 N   0  0  0  0  0  0  0  0  0  0  0  0
   -0.9890    6.8790   16.3580 C   0  0  0  0  0  0  0  0  0  0  0  0
   -1.3880    4.7960   16.4580 H   0  0  0  0  0  0  0  0  0  0  0  0
    0.0890    6.8270   16.4370 H   0  0  0  0  0  0  0  0  0  0  0  0
   -0.2330    9.7470   17.0990 C   0  0  0  0  0  0  0  0  0  0  0  0
    0.4860    8.9220   17.0500 H   0  0  0  0  0  0  0  0  0  0  0  0
    0.2770   10.6460   16.7330 H   0  0  0  0  0  0  0  0  0  0  0  0
   -0.5970    9.9460   18.5040 N   0  0  0  0  0  0  0  0  0  0  0  0
   -0.3100   10.8730   18.8080 H   0  0  0  0  0  0  0  0  0  0  0  0
   -1.6100    9.9020   18.6010 H   0  0  0  0  0  0  0  0  0  0  0  0
  1  4  1  0  0  0  0
  1  2  1  0  0  0  0
  1 19  1  0  0  0  0
  3  1  1  0  0  0  0
  4 16  2  0  0  0  0
  5  6  2  0  0  0  0
  5  7  1  0  0  0  0
  6  9  1  0  0  0  0
  7 11  2  0  0  0  0
  8  5  1  0  0  0  0
  9  4  1  0  0  0  0
  9 13  2  0  0  0  0
 10  6  1  0  0  0  0
 11 13  1  0  0  0  0
 11 14  1  0  0  0  0
 12  7  1  0  0  0  0
 13 15  1  0  0  0  0
 15 17  1  0  0  0  0
 16 15  1  0  0  0  0
 16 18  1  0  0  0  0
 19 22  1  0  0  0  0
 20 19  1  0  0  0  0
 21 19  1  0  0  0  0
 22 24  1  0  0  0  0
 22 23  1  0  0  0  0
M  END
>  <REMARK>
 VINA RESULT:      -4.8      2.607      4.676
 SMILES NCCc1c[nH]c2c(F)cccc12
 SMILES IDX 3 1 4 4 11 5 12 6 10 7 13 9 8 11 7 13 9 14 6 15 5 16 2 19
 SMILES IDX 1 22
 H PARENT 3 2 3 3 11 8 12 10 10 12 6 17 5 18 2 20 2 21 1 23 1 24
 Flexibility Score: inf

>  <TORSDO>
F 3

$$$$
./dock_file/liganddock202312151433/7Fluorotryptamine_PROamberH_GPCR5A_AF_selefeatureTOP200_color/7Fluorotryptamine_PROamberH_GPCR5A_AF_selefeatureTOP200_color_out_8.pdbqt
 OpenBabel12152314333D

 24 25  0  0  0  0  0  0  0  0999 V2000
   -6.9730    4.2660   19.0130 C   0  0  0  0  0  0  0  0  0  0  0  0
   -6.6160    3.4530   19.6590 H   0  0  0  0  0  0  0  0  0  0  0  0
   -7.1330    3.8140   18.0260 H   0  0  0  0  0  0  0  0  0  0  0  0
   -5.9030    5.3100   18.9260 C   0  0  0  0  0  0  0  0  0  0  0  0
   -5.3600    6.9740   15.5140 C   0  0  0  0  0  0  0  0  0  0  0  0
   -5.9660    6.0940   16.4220 C   0  0  0  0  0  0  0  0  0  0  0  0
   -4.3290    7.8160   15.9230 C   0  0  0  0  0  0  0  0  0  0  0  0
   -5.7000    6.9970   14.4810 H   0  0  0  0  0  0  0  0  0  0  0  0
   -5.5270    6.0600   17.7640 C   0  0  0  0  0  0  0  0  0  0  0  0
   -6.7680    5.4410   16.0900 H   0  0  0  0  0  0  0  0  0  0  0  0
   -3.8860    7.7930   17.2430 C   0  0  0  0  0  0  0  0  0  0  0  0
   -3.8610    8.4960   15.2180 H   0  0  0  0  0  0  0  0  0  0  0  0
   -4.4920    6.9160   18.1420 C   0  0  0  0  0  0  0  0  0  0  0  0
   -2.8930    8.6030   17.6340 F   0  0  0  0  0  0  0  0  0  0  0  0
   -4.2440    6.6990   19.4740 N   0  0  0  0  0  0  0  0  0  0  0  0
   -5.0920    5.7410   19.9590 C   0  0  0  0  0  0  0  0  0  0  0  0
   -3.5320    7.1800   20.0060 H   0  0  0  0  0  0  0  0  0  0  0  0
   -5.0390    5.4310   20.9940 H   0  0  0  0  0  0  0  0  0  0  0  0
   -8.3040    4.7850   19.5760 C   0  0  0  0  0  0  0  0  0  0  0  0
   -8.0910    5.4730   20.4010 H   0  0  0  0  0  0  0  0  0  0  0  0
   -8.8510    5.3500   18.8120 H   0  0  0  0  0  0  0  0  0  0  0  0
   -9.1690    3.7200   20.0900 N   0  0  0  0  0  0  0  0  0  0  0  0
   -9.9650    4.1260   20.5780 H   0  0  0  0  0  0  0  0  0  0  0  0
   -9.5440    3.1810   19.3110 H   0  0  0  0  0  0  0  0  0  0  0  0
  1 19  1  0  0  0  0
  1  2  1  0  0  0  0
  3  1  1  0  0  0  0
  4  1  1  0  0  0  0
  4 16  2  0  0  0  0
  5  7  2  0  0  0  0
  5  6  1  0  0  0  0
  6  9  2  0  0  0  0
  7 11  1  0  0  0  0
  8  5  1  0  0  0  0
  9 13  1  0  0  0  0
  9  4  1  0  0  0  0
 10  6  1  0  0  0  0
 11 14  1  0  0  0  0
 11 13  2  0  0  0  0
 12  7  1  0  0  0  0
 13 15  1  0  0  0  0
 15 16  1  0  0  0  0
 15 17  1  0  0  0  0
 16 18  1  0  0  0  0
 19 22  1  0  0  0  0
 19 20  1  0  0  0  0
 21 19  1  0  0  0  0
 22 23  1  0  0  0  0
 24 22  1  0  0  0  0
M  END
>  <REMARK>
 VINA RESULT:      -4.8      3.726      4.542
 SMILES NCCc1c[nH]c2c(F)cccc12
 SMILES IDX 3 1 4 4 11 5 12 6 10 7 13 9 8 11 7 13 9 14 6 15 5 16 2 19
 SMILES IDX 1 22
 H PARENT 3 2 3 3 11 8 12 10 10 12 6 17 5 18 2 20 2 21 1 23 1 24
 Flexibility Score: inf

>  <TORSDO>
F 3

$$$$
