MODEL 1
REMARK VINA RESULT:      -5.1      0.000      0.000
REMARK SMILES NCCc1c[nH]c2c(F)cccc12
REMARK SMILES IDX 3 1 4 4 11 5 12 6 10 7 13 9 8 11 7 13 9 14 6 15 5 16 2 19
REMARK SMILES IDX 1 22
REMARK H PARENT 3 2 3 3 11 8 12 10 10 12 6 17 5 18 2 20 2 21 1 23 1 24
REMARK Flexibility Score: inf
ROOT
ATOM      1  C   UNL     1       2.250  -3.437 -23.895  1.00  0.00    -0.013 C 
ATOM      2  H   UNL     1       2.199  -2.705 -23.078  1.00  0.00     0.033 H 
ATOM      3  H   UNL     1       1.352  -3.268 -24.503  1.00  0.00     0.033 H 
ENDROOT
BRANCH   1   4
ATOM      4  C   UNL     1       2.213  -4.813 -23.305  1.00  0.00    -0.021 A 
ATOM      5  C   UNL     1       1.870  -7.751 -25.746  1.00  0.00    -0.059 A 
ATOM      6  C   UNL     1       1.973  -6.401 -25.381  1.00  0.00    -0.052 A 
ATOM      7  C   UNL     1       1.882  -8.750 -24.776  1.00  0.00    -0.024 A 
ATOM      8  H   UNL     1       1.777  -8.017 -26.796  1.00  0.00     0.062 H 
ATOM      9  C   UNL     1       2.092  -6.051 -24.018  1.00  0.00     0.006 A 
ATOM     10  H   UNL     1       1.961  -5.631 -26.146  1.00  0.00     0.063 H 
ATOM     11  C   UNL     1       1.998  -8.419 -23.429  1.00  0.00     0.147 A 
ATOM     12  H   UNL     1       1.801  -9.795 -25.061  1.00  0.00     0.065 H 
ATOM     13  C   UNL     1       2.101  -7.076 -23.072  1.00  0.00     0.082 A 
ATOM     14  F   UNL     1       2.008  -9.383 -22.498  1.00  0.00    -0.205 F 
ATOM     15  N   UNL     1       2.220  -6.493 -21.835  1.00  0.00    -0.359 N 
ATOM     16  C   UNL     1       2.296  -5.133 -21.963  1.00  0.00     0.005 A 
ATOM     17  H   UNL     1       2.242  -7.005 -20.963  1.00  0.00     0.166 HD
ATOM     18  H   UNL     1       2.387  -4.501 -21.089  1.00  0.00     0.082 H 
ENDBRANCH   1   4
BRANCH   1  19
ATOM     19  C   UNL     1       3.509  -3.151 -24.726  1.00  0.00    -0.004 C 
ATOM     20  H   UNL     1       4.386  -3.241 -24.076  1.00  0.00     0.043 H 
ATOM     21  H   UNL     1       3.618  -3.892 -25.526  1.00  0.00     0.043 H 
BRANCH  19  22
ATOM     22  N   UNL     1       3.521  -1.810 -25.314  1.00  0.00    -0.330 NA
ATOM     23  H   UNL     1       2.608  -1.597 -25.711  1.00  0.00     0.118 HD
ATOM     24  H   UNL     1       3.694  -1.120 -24.585  1.00  0.00     0.118 HD
ENDBRANCH  19  22
ENDBRANCH   1  19
TORSDOF 3
ENDMDL
MODEL 2
REMARK VINA RESULT:      -4.7      1.964      2.398
REMARK SMILES NCCc1c[nH]c2c(F)cccc12
REMARK SMILES IDX 3 1 4 4 11 5 12 6 10 7 13 9 8 11 7 13 9 14 6 15 5 16 2 19
REMARK SMILES IDX 1 22
REMARK H PARENT 3 2 3 3 11 8 12 10 10 12 6 17 5 18 2 20 2 21 1 23 1 24
REMARK Flexibility Score: inf
ROOT
ATOM      1  C   UNL     1       3.810  -2.816 -23.739  1.00  0.00    -0.013 C 
ATOM      2  H   UNL     1       4.696  -2.919 -24.378  1.00  0.00     0.033 H 
ATOM      3  H   UNL     1       4.177  -2.879 -22.707  1.00  0.00     0.033 H 
ENDROOT
BRANCH   1   4
ATOM      4  C   UNL     1       2.884  -3.959 -24.020  1.00  0.00    -0.021 A 
ATOM      5  C   UNL     1       3.487  -5.944 -27.245  1.00  0.00    -0.059 A 
ATOM      6  C   UNL     1       3.737  -4.939 -26.300  1.00  0.00    -0.052 A 
ATOM      7  C   UNL     1       2.438  -6.841 -27.064  1.00  0.00    -0.024 A 
ATOM      8  H   UNL     1       4.119  -6.020 -28.127  1.00  0.00     0.062 H 
ATOM      9  C   UNL     1       2.919  -4.835 -25.154  1.00  0.00     0.006 A 
ATOM     10  H   UNL     1       4.558  -4.244 -26.454  1.00  0.00     0.063 H 
ATOM     11  C   UNL     1       1.623  -6.750 -25.939  1.00  0.00     0.147 A 
ATOM     12  H   UNL     1       2.245  -7.618 -27.797  1.00  0.00     0.065 H 
ATOM     13  C   UNL     1       1.876  -5.749 -25.003  1.00  0.00     0.082 A 
ATOM     14  F   UNL     1       0.613  -7.614 -25.768  1.00  0.00    -0.205 F 
ATOM     15  N   UNL     1       1.230  -5.446 -23.830  1.00  0.00    -0.359 N 
ATOM     16  C   UNL     1       1.832  -4.376 -23.226  1.00  0.00     0.005 A 
ATOM     17  H   UNL     1       0.425  -5.946 -23.478  1.00  0.00     0.166 HD
ATOM     18  H   UNL     1       1.454  -3.988 -22.289  1.00  0.00     0.082 H 
ENDBRANCH   1   4
BRANCH   1  19
ATOM     19  C   UNL     1       3.187  -1.435 -23.991  1.00  0.00    -0.004 C 
ATOM     20  H   UNL     1       2.106  -1.503 -23.830  1.00  0.00     0.043 H 
ATOM     21  H   UNL     1       3.577  -0.700 -23.277  1.00  0.00     0.043 H 
BRANCH  19  22
ATOM     22  N   UNL     1       3.409  -0.940 -25.352  1.00  0.00    -0.330 NA
ATOM     23  H   UNL     1       3.836  -0.016 -25.319  1.00  0.00     0.118 HD
ATOM     24  H   UNL     1       4.065  -1.552 -25.833  1.00  0.00     0.118 HD
ENDBRANCH  19  22
ENDBRANCH   1  19
TORSDOF 3
ENDMDL
MODEL 3
REMARK VINA RESULT:      -4.7      1.570      2.342
REMARK SMILES NCCc1c[nH]c2c(F)cccc12
REMARK SMILES IDX 3 1 4 4 11 5 12 6 10 7 13 9 8 11 7 13 9 14 6 15 5 16 2 19
REMARK SMILES IDX 1 22
REMARK H PARENT 3 2 3 3 11 8 12 10 10 12 6 17 5 18 2 20 2 21 1 23 1 24
REMARK Flexibility Score: inf
ROOT
ATOM      1  C   UNL     1       2.183  -3.741 -24.086  1.00  0.00    -0.013 C 
ATOM      2  H   UNL     1       1.822  -3.728 -23.050  1.00  0.00     0.033 H 
ATOM      3  H   UNL     1       1.399  -3.255 -24.681  1.00  0.00     0.033 H 
ENDROOT
BRANCH   1   4
ATOM      4  C   UNL     1       2.338  -5.167 -24.518  1.00  0.00    -0.021 A 
ATOM      5  C   UNL     1       1.849  -7.867 -21.839  1.00  0.00    -0.059 A 
ATOM      6  C   UNL     1       1.906  -6.556 -22.334  1.00  0.00    -0.052 A 
ATOM      7  C   UNL     1       2.081  -8.952 -22.680  1.00  0.00    -0.024 A 
ATOM      8  H   UNL     1       1.622  -8.035 -20.789  1.00  0.00     0.062 H 
ATOM      9  C   UNL     1       2.201  -6.334 -23.697  1.00  0.00     0.006 A 
ATOM     10  H   UNL     1       1.724  -5.718 -21.667  1.00  0.00     0.063 H 
ATOM     11  C   UNL     1       2.373  -8.748 -24.025  1.00  0.00     0.147 A 
ATOM     12  H   UNL     1       2.037  -9.966 -22.294  1.00  0.00     0.065 H 
ATOM     13  C   UNL     1       2.428  -7.443 -24.512  1.00  0.00     0.082 A 
ATOM     14  F   UNL     1       2.597  -9.794 -24.832  1.00  0.00    -0.205 F 
ATOM     15  N   UNL     1       2.695  -6.977 -25.775  1.00  0.00    -0.359 N 
ATOM     16  C   UNL     1       2.636  -5.610 -25.793  1.00  0.00     0.005 A 
ATOM     17  H   UNL     1       2.907  -7.568 -26.567  1.00  0.00     0.166 HD
ATOM     18  H   UNL     1       2.826  -5.062 -26.706  1.00  0.00     0.082 H 
ENDBRANCH   1   4
BRANCH   1  19
ATOM     19  C   UNL     1       3.481  -2.924 -24.160  1.00  0.00    -0.004 C 
ATOM     20  H   UNL     1       3.609  -2.384 -23.215  1.00  0.00     0.043 H 
ATOM     21  H   UNL     1       4.346  -3.587 -24.276  1.00  0.00     0.043 H 
BRANCH  19  22
ATOM     22  N   UNL     1       3.485  -1.942 -25.246  1.00  0.00    -0.330 NA
ATOM     23  H   UNL     1       2.732  -2.144 -25.899  1.00  0.00     0.118 HD
ATOM     24  H   UNL     1       3.306  -1.014 -24.865  1.00  0.00     0.118 HD
ENDBRANCH  19  22
ENDBRANCH   1  19
TORSDOF 3
ENDMDL
