./dock_file/liganddock202312151433/7Fluorotryptamine_PROamberH_GPCR5A_AF_selefeatureTOP200_color/7Fluorotryptamine_PROamberH_GPCR5A_AF_selefeatureTOP200_color_out_13.pdbqt
 OpenBabel12152314333D

 24 25  0  0  0  0  0  0  0  0999 V2000
   -9.6710   -9.8490  -10.5590 C   0  0  0  0  0  0  0  0  0  0  0  0
   -8.6720   -9.9110  -11.0100 H   0  0  0  0  0  0  0  0  0  0  0  0
  -10.3290  -10.4410  -11.2080 H   0  0  0  0  0  0  0  0  0  0  0  0
  -10.1080   -8.4160  -10.5630 C   0  0  0  0  0  0  0  0  0  0  0  0
   -8.8880   -6.2270  -13.4670 C   0  0  0  0  0  0  0  0  0  0  0  0
   -9.0090   -7.4110  -12.7240 C   0  0  0  0  0  0  0  0  0  0  0  0
   -9.5210   -5.0600  -13.0470 C   0  0  0  0  0  0  0  0  0  0  0  0
   -8.2940   -6.2240  -14.3770 H   0  0  0  0  0  0  0  0  0  0  0  0
   -9.7790   -7.4200  -11.5400 C   0  0  0  0  0  0  0  0  0  0  0  0
   -8.5090   -8.3140  -13.0610 H   0  0  0  0  0  0  0  0  0  0  0  0
  -10.2830   -5.0550  -11.8820 C   0  0  0  0  0  0  0  0  0  0  0  0
   -9.4260   -4.1450  -13.6230 H   0  0  0  0  0  0  0  0  0  0  0  0
  -10.4000   -6.2350  -11.1480 C   0  0  0  0  0  0  0  0  0  0  0  0
  -10.8900   -3.9310  -11.4800 F   0  0  0  0  0  0  0  0  0  0  0  0
  -11.0770   -6.4910   -9.9820 N   0  0  0  0  0  0  0  0  0  0  0  0
  -10.9150   -7.8020   -9.6250 C   0  0  0  0  0  0  0  0  0  0  0  0
  -11.6100   -5.8020   -9.4700 H   0  0  0  0  0  0  0  0  0  0  0  0
  -11.3740   -8.1880   -8.7240 H   0  0  0  0  0  0  0  0  0  0  0  0
   -9.6110  -10.4760   -9.1580 C   0  0  0  0  0  0  0  0  0  0  0  0
  -10.0160   -9.7590   -8.4350 H   0  0  0  0  0  0  0  0  0  0  0  0
  -10.2370  -11.3740   -9.1120 H   0  0  0  0  0  0  0  0  0  0  0  0
   -8.2510  -10.8220   -8.7370 N   0  0  0  0  0  0  0  0  0  0  0  0
   -8.2200  -10.9380   -7.7270 H   0  0  0  0  0  0  0  0  0  0  0  0
   -7.9870  -11.7170   -9.1450 H   0  0  0  0  0  0  0  0  0  0  0  0
  1 19  1  0  0  0  0
  2  1  1  0  0  0  0
  3  1  1  0  0  0  0
  4  1  1  0  0  0  0
  4 16  2  0  0  0  0
  5  7  2  0  0  0  0
  5  6  1  0  0  0  0
  6  9  2  0  0  0  0
  7 11  1  0  0  0  0
  8  5  1  0  0  0  0
  9 13  1  0  0  0  0
  9  4  1  0  0  0  0
 10  6  1  0  0  0  0
 11 14  1  0  0  0  0
 11 13  2  0  0  0  0
 12  7  1  0  0  0  0
 13 15  1  0  0  0  0
 15 16  1  0  0  0  0
 15 17  1  0  0  0  0
 16 18  1  0  0  0  0
 19 21  1  0  0  0  0
 19 22  1  0  0  0  0
 19 20  1  0  0  0  0
 22 23  1  0  0  0  0
 24 22  1  0  0  0  0
M  END
>  <MODEL>
1

>  <REMARK>
 VINA RESULT:      -4.4      0.000      0.000
 SMILES NCCc1c[nH]c2c(F)cccc12
 SMILES IDX 3 1 4 4 11 5 12 6 10 7 13 9 8 11 7 13 9 14 6 15 5 16 2 19
 SMILES IDX 1 22
 H PARENT 3 2 3 3 11 8 12 10 10 12 6 17 5 18 2 20 2 21 1 23 1 24
 Flexibility Score: inf

>  <TORSDO>
F 3

$$$$
./dock_file/liganddock202312151433/7Fluorotryptamine_PROamberH_GPCR5A_AF_selefeatureTOP200_color/7Fluorotryptamine_PROamberH_GPCR5A_AF_selefeatureTOP200_color_out_13.pdbqt
 OpenBabel12152314333D

 24 25  0  0  0  0  0  0  0  0999 V2000
   -8.5000   -5.8800  -14.3130 C   0  0  0  0  0  0  0  0  0  0  0  0
   -9.0580   -6.5110  -15.0180 H   0  0  0  0  0  0  0  0  0  0  0  0
   -7.5370   -6.3820  -14.1610 H   0  0  0  0  0  0  0  0  0  0  0  0
   -9.2550   -5.8270  -13.0210 C   0  0  0  0  0  0  0  0  0  0  0  0
   -9.7300   -9.1350  -11.1390 C   0  0  0  0  0  0  0  0  0  0  0  0
   -9.2790   -8.3140  -12.1830 C   0  0  0  0  0  0  0  0  0  0  0  0
  -10.4430   -8.5960  -10.0710 C   0  0  0  0  0  0  0  0  0  0  0  0
   -9.5200  -10.2010  -11.1660 H   0  0  0  0  0  0  0  0  0  0  0  0
   -9.5510   -6.9290  -12.1520 C   0  0  0  0  0  0  0  0  0  0  0  0
   -8.7250   -8.7470  -13.0100 H   0  0  0  0  0  0  0  0  0  0  0  0
  -10.7190   -7.2320  -10.0290 C   0  0  0  0  0  0  0  0  0  0  0  0
  -10.7920   -9.2330   -9.2640 H   0  0  0  0  0  0  0  0  0  0  0  0
  -10.2680   -6.4210  -11.0690 C   0  0  0  0  0  0  0  0  0  0  0  0
  -11.4060   -6.7160   -9.0010 F   0  0  0  0  0  0  0  0  0  0  0  0
  -10.4070   -5.0690  -11.2650 N   0  0  0  0  0  0  0  0  0  0  0  0
   -9.7950   -4.6990  -12.4320 C   0  0  0  0  0  0  0  0  0  0  0  0
  -10.8970   -4.4500  -10.6340 H   0  0  0  0  0  0  0  0  0  0  0  0
   -9.8070   -3.6680  -12.7570 H   0  0  0  0  0  0  0  0  0  0  0  0
   -8.2800   -4.5050  -14.9610 C   0  0  0  0  0  0  0  0  0  0  0  0
   -8.7170   -3.7380  -14.3130 H   0  0  0  0  0  0  0  0  0  0  0  0
   -7.2090   -4.2880  -15.0470 H   0  0  0  0  0  0  0  0  0  0  0  0
   -8.8980   -4.3840  -16.2840 N   0  0  0  0  0  0  0  0  0  0  0  0
   -9.7700   -3.8640  -16.2120 H   0  0  0  0  0  0  0  0  0  0  0  0
   -8.2850   -3.8490  -16.8970 H   0  0  0  0  0  0  0  0  0  0  0  0
  1  3  1  0  0  0  0
  1  4  1  0  0  0  0
  2  1  1  0  0  0  0
  4 16  2  0  0  0  0
  4  9  1  0  0  0  0
  5  7  2  0  0  0  0
  6  9  2  0  0  0  0
  6  5  1  0  0  0  0
  7 11  1  0  0  0  0
  7 12  1  0  0  0  0
  8  5  1  0  0  0  0
  9 13  1  0  0  0  0
 10  6  1  0  0  0  0
 11 14  1  0  0  0  0
 13 11  2  0  0  0  0
 15 13  1  0  0  0  0
 15 17  1  0  0  0  0
 16 15  1  0  0  0  0
 18 16  1  0  0  0  0
 19  1  1  0  0  0  0
 19 20  1  0  0  0  0
 21 19  1  0  0  0  0
 22 23  1  0  0  0  0
 22 19  1  0  0  0  0
 24 22  1  0  0  0  0
M  END
>  <REMARK>
 VINA RESULT:      -4.0      2.456      4.794
 SMILES NCCc1c[nH]c2c(F)cccc12
 SMILES IDX 3 1 4 4 11 5 12 6 10 7 13 9 8 11 7 13 9 14 6 15 5 16 2 19
 SMILES IDX 1 22
 H PARENT 3 2 3 3 11 8 12 10 10 12 6 17 5 18 2 20 2 21 1 23 1 24
 Flexibility Score: inf

>  <TORSDO>
F 3

$$$$
./dock_file/liganddock202312151433/7Fluorotryptamine_PROamberH_GPCR5A_AF_selefeatureTOP200_color/7Fluorotryptamine_PROamberH_GPCR5A_AF_selefeatureTOP200_color_out_13.pdbqt
 OpenBabel12152314333D

 24 25  0  0  0  0  0  0  0  0999 V2000
  -10.9040   -8.7910  -11.1240 C   0  0  0  0  0  0  0  0  0  0  0  0
  -11.0190   -9.4080  -12.0250 H   0  0  0  0  0  0  0  0  0  0  0  0
  -11.9050   -8.7280  -10.6770 H   0  0  0  0  0  0  0  0  0  0  0  0
  -10.4440   -7.4270  -11.5340 C   0  0  0  0  0  0  0  0  0  0  0  0
   -7.9650   -7.2250  -14.4540 C   0  0  0  0  0  0  0  0  0  0  0  0
   -8.7980   -7.8720  -13.5300 C   0  0  0  0  0  0  0  0  0  0  0  0
   -7.8500   -5.8370  -14.4540 C   0  0  0  0  0  0  0  0  0  0  0  0
   -7.4040   -7.8140  -15.1750 H   0  0  0  0  0  0  0  0  0  0  0  0
   -9.5280   -7.1100  -12.5910 C   0  0  0  0  0  0  0  0  0  0  0  0
   -8.8780   -8.9550  -13.5390 H   0  0  0  0  0  0  0  0  0  0  0  0
   -8.5630   -5.0740  -13.5330 C   0  0  0  0  0  0  0  0  0  0  0  0
   -7.2040   -5.3380  -15.1690 H   0  0  0  0  0  0  0  0  0  0  0  0
   -9.3910   -5.7220  -12.6180 C   0  0  0  0  0  0  0  0  0  0  0  0
   -8.4500   -3.7390  -13.5350 F   0  0  0  0  0  0  0  0  0  0  0  0
  -10.1840   -5.2110  -11.6210 N   0  0  0  0  0  0  0  0  0  0  0  0
  -10.8290   -6.2270  -10.9680 C   0  0  0  0  0  0  0  0  0  0  0  0
  -10.2680   -4.2270  -11.4080 H   0  0  0  0  0  0  0  0  0  0  0  0
  -11.4960   -6.0140  -10.1430 H   0  0  0  0  0  0  0  0  0  0  0  0
   -9.9440   -9.5090  -10.1640 C   0  0  0  0  0  0  0  0  0  0  0  0
   -9.8310  -10.5480  -10.4920 H   0  0  0  0  0  0  0  0  0  0  0  0
   -8.9500   -9.0470  -10.1970 H   0  0  0  0  0  0  0  0  0  0  0  0
  -10.4160   -9.5220   -8.7770 N   0  0  0  0  0  0  0  0  0  0  0  0
  -11.4330   -9.5310   -8.7570 H   0  0  0  0  0  0  0  0  0  0  0  0
  -10.1040  -10.3780   -8.3210 H   0  0  0  0  0  0  0  0  0  0  0  0
  1  3  1  0  0  0  0
  1 19  1  0  0  0  0
  2  1  1  0  0  0  0
  4  1  1  0  0  0  0
  4 16  2  0  0  0  0
  5  7  2  0  0  0  0
  5  6  1  0  0  0  0
  6  9  2  0  0  0  0
  7 11  1  0  0  0  0
  8  5  1  0  0  0  0
  9  4  1  0  0  0  0
 10  6  1  0  0  0  0
 11 13  2  0  0  0  0
 12  7  1  0  0  0  0
 13  9  1  0  0  0  0
 13 15  1  0  0  0  0
 14 11  1  0  0  0  0
 15 17  1  0  0  0  0
 15 16  1  0  0  0  0
 16 18  1  0  0  0  0
 19 22  1  0  0  0  0
 20 19  1  0  0  0  0
 21 19  1  0  0  0  0
 22 23  1  0  0  0  0
 22 24  1  0  0  0  0
M  END
>  <REMARK>
 VINA RESULT:      -3.9      1.596      2.010
 SMILES NCCc1c[nH]c2c(F)cccc12
 SMILES IDX 3 1 4 4 11 5 12 6 10 7 13 9 8 11 7 13 9 14 6 15 5 16 2 19
 SMILES IDX 1 22
 H PARENT 3 2 3 3 11 8 12 10 10 12 6 17 5 18 2 20 2 21 1 23 1 24
 Flexibility Score: inf

>  <TORSDO>
F 3

$$$$
