MODEL 1
REMARK VINA RESULT:      -5.0      0.000      0.000
REMARK SMILES NCCc1c[nH]c2c(F)cccc12
REMARK SMILES IDX 3 1 4 4 11 5 12 6 10 7 13 9 8 11 7 13 9 14 6 15 5 16 2 19
REMARK SMILES IDX 1 22
REMARK H PARENT 3 2 3 3 11 8 12 10 10 12 6 17 5 18 2 20 2 21 1 23 1 24
REMARK Flexibility Score: inf
ROOT
ATOM      1  C   UNL     1     -16.296  -0.181  14.636  1.00  0.00    -0.013 C 
ATOM      2  H   UNL     1     -15.944   0.588  15.335  1.00  0.00     0.033 H 
ATOM      3  H   UNL     1     -15.393  -0.689  14.273  1.00  0.00     0.033 H 
ENDROOT
BRANCH   1   4
ATOM      4  C   UNL     1     -16.993   0.493  13.495  1.00  0.00    -0.021 A 
ATOM      5  C   UNL     1     -16.438   4.267  13.094  1.00  0.00    -0.059 A 
ATOM      6  C   UNL     1     -16.276   3.010  13.694  1.00  0.00    -0.052 A 
ATOM      7  C   UNL     1     -17.243   4.415  11.967  1.00  0.00    -0.024 A 
ATOM      8  H   UNL     1     -15.932   5.132  13.515  1.00  0.00     0.062 H 
ATOM      9  C   UNL     1     -16.933   1.883  13.152  1.00  0.00     0.006 A 
ATOM     10  H   UNL     1     -15.647   2.908  14.574  1.00  0.00     0.063 H 
ATOM     11  C   UNL     1     -17.897   3.313  11.422  1.00  0.00     0.147 A 
ATOM     12  H   UNL     1     -17.369   5.389  11.504  1.00  0.00     0.065 H 
ATOM     13  C   UNL     1     -17.731   2.066  12.022  1.00  0.00     0.082 A 
ATOM     14  F   UNL     1     -18.671   3.458  10.338  1.00  0.00    -0.205 F 
ATOM     15  N   UNL     1     -18.259   0.843  11.690  1.00  0.00    -0.359 N 
ATOM     16  C   UNL     1     -17.815  -0.112  12.564  1.00  0.00     0.005 A 
ATOM     17  H   UNL     1     -18.886   0.686  10.913  1.00  0.00     0.166 HD
ATOM     18  H   UNL     1     -18.133  -1.141  12.462  1.00  0.00     0.082 H 
ENDBRANCH   1   4
BRANCH   1  19
ATOM     19  C   UNL     1     -17.180  -1.171  15.408  1.00  0.00    -0.004 C 
ATOM     20  H   UNL     1     -17.190  -0.882  16.465  1.00  0.00     0.043 H 
ATOM     21  H   UNL     1     -18.215  -1.123  15.048  1.00  0.00     0.043 H 
BRANCH  19  22
ATOM     22  N   UNL     1     -16.710  -2.555  15.323  1.00  0.00    -0.330 NA
ATOM     23  H   UNL     1     -16.269  -2.826  16.199  1.00  0.00     0.118 HD
ATOM     24  H   UNL     1     -17.506  -3.177  15.188  1.00  0.00     0.118 HD
ENDBRANCH  19  22
ENDBRANCH   1  19
TORSDOF 3
ENDMDL
MODEL 2
REMARK VINA RESULT:      -4.5      8.964     10.825
REMARK SMILES NCCc1c[nH]c2c(F)cccc12
REMARK SMILES IDX 3 1 4 4 11 5 12 6 10 7 13 9 8 11 7 13 9 14 6 15 5 16 2 19
REMARK SMILES IDX 1 22
REMARK H PARENT 3 2 3 3 11 8 12 10 10 12 6 17 5 18 2 20 2 21 1 23 1 24
REMARK Flexibility Score: inf
ROOT
ATOM      1  C   UNL     1     -23.560  -0.192  17.425  1.00  0.00    -0.013 C 
ATOM      2  H   UNL     1     -23.712   0.145  16.392  1.00  0.00     0.033 H 
ATOM      3  H   UNL     1     -22.476  -0.150  17.595  1.00  0.00     0.033 H 
ENDROOT
BRANCH   1   4
ATOM      4  C   UNL     1     -24.038  -1.607  17.540  1.00  0.00    -0.021 A 
ATOM      5  C   UNL     1     -23.634  -3.314  20.951  1.00  0.00    -0.059 A 
ATOM      6  C   UNL     1     -23.528  -2.261  20.030  1.00  0.00    -0.052 A 
ATOM      7  C   UNL     1     -24.191  -4.533  20.572  1.00  0.00    -0.024 A 
ATOM      8  H   UNL     1     -23.276  -3.176  21.968  1.00  0.00     0.062 H 
ATOM      9  C   UNL     1     -23.990  -2.438  18.707  1.00  0.00     0.006 A 
ATOM     10  H   UNL     1     -23.091  -1.316  20.338  1.00  0.00     0.063 H 
ATOM     11  C   UNL     1     -24.650  -4.721  19.271  1.00  0.00     0.147 A 
ATOM     12  H   UNL     1     -24.271  -5.347  21.285  1.00  0.00     0.065 H 
ATOM     13  C   UNL     1     -24.543  -3.671  18.360  1.00  0.00     0.082 A 
ATOM     14  F   UNL     1     -25.184  -5.895  18.908  1.00  0.00    -0.205 F 
ATOM     15  N   UNL     1     -24.910  -3.600  17.040  1.00  0.00    -0.359 N 
ATOM     16  C   UNL     1     -24.618  -2.360  16.538  1.00  0.00     0.005 A 
ATOM     17  H   UNL     1     -25.329  -4.361  16.523  1.00  0.00     0.166 HD
ATOM     18  H   UNL     1     -24.833  -2.120  15.505  1.00  0.00     0.082 H 
ENDBRANCH   1   4
BRANCH   1  19
ATOM     19  C   UNL     1     -24.278   0.786  18.366  1.00  0.00    -0.004 C 
ATOM     20  H   UNL     1     -25.357   0.713  18.191  1.00  0.00     0.043 H 
ATOM     21  H   UNL     1     -24.099   0.513  19.413  1.00  0.00     0.043 H 
BRANCH  19  22
ATOM     22  N   UNL     1     -23.881   2.181  18.164  1.00  0.00    -0.330 NA
ATOM     23  H   UNL     1     -23.553   2.313  17.209  1.00  0.00     0.118 HD
ATOM     24  H   UNL     1     -24.692   2.786  18.284  1.00  0.00     0.118 HD
ENDBRANCH  19  22
ENDBRANCH   1  19
TORSDOF 3
ENDMDL
MODEL 3
REMARK VINA RESULT:      -4.4     10.020     11.942
REMARK SMILES NCCc1c[nH]c2c(F)cccc12
REMARK SMILES IDX 3 1 4 4 11 5 12 6 10 7 13 9 8 11 7 13 9 14 6 15 5 16 2 19
REMARK SMILES IDX 1 22
REMARK H PARENT 3 2 3 3 11 8 12 10 10 12 6 17 5 18 2 20 2 21 1 23 1 24
REMARK Flexibility Score: inf
ROOT
ATOM      1  C   UNL     1     -24.244  -2.448  16.993  1.00  0.00    -0.013 C 
ATOM      2  H   UNL     1     -23.208  -2.798  16.895  1.00  0.00     0.033 H 
ATOM      3  H   UNL     1     -24.177  -1.369  17.183  1.00  0.00     0.033 H 
ENDROOT
BRANCH   1   4
ATOM      4  C   UNL     1     -24.870  -3.134  18.167  1.00  0.00    -0.021 A 
ATOM      5  C   UNL     1     -24.981  -1.189  21.471  1.00  0.00    -0.059 A 
ATOM      6  C   UNL     1     -24.680  -1.386  20.115  1.00  0.00    -0.052 A 
ATOM      7  C   UNL     1     -25.617  -2.185  22.207  1.00  0.00    -0.024 A 
ATOM      8  H   UNL     1     -24.715  -0.250  21.949  1.00  0.00     0.062 H 
ATOM      9  C   UNL     1     -25.023  -2.605  19.491  1.00  0.00     0.006 A 
ATOM     10  H   UNL     1     -24.182  -0.601  19.553  1.00  0.00     0.063 H 
ATOM     11  C   UNL     1     -25.960  -3.393  21.604  1.00  0.00     0.147 A 
ATOM     12  H   UNL     1     -25.849  -2.032  23.256  1.00  0.00     0.065 H 
ATOM     13  C   UNL     1     -25.658  -3.583  20.257  1.00  0.00     0.082 A 
ATOM     14  F   UNL     1     -26.570  -4.350  22.315  1.00  0.00    -0.205 F 
ATOM     15  N   UNL     1     -25.883  -4.663  19.440  1.00  0.00    -0.359 N 
ATOM     16  C   UNL     1     -25.420  -4.402  18.179  1.00  0.00     0.005 A 
ATOM     17  H   UNL     1     -26.323  -5.522  19.741  1.00  0.00     0.166 HD
ATOM     18  H   UNL     1     -25.505  -5.144  17.396  1.00  0.00     0.082 H 
ENDBRANCH   1   4
BRANCH   1  19
ATOM     19  C   UNL     1     -24.970  -2.703  15.664  1.00  0.00    -0.004 C 
ATOM     20  H   UNL     1     -24.386  -3.421  15.077  1.00  0.00     0.043 H 
ATOM     21  H   UNL     1     -25.954  -3.152  15.843  1.00  0.00     0.043 H 
BRANCH  19  22
ATOM     22  N   UNL     1     -25.139  -1.493  14.856  1.00  0.00    -0.330 NA
ATOM     23  H   UNL     1     -25.073  -0.669  15.448  1.00  0.00     0.118 HD
ATOM     24  H   UNL     1     -24.383  -1.430  14.176  1.00  0.00     0.118 HD
ENDBRANCH  19  22
ENDBRANCH   1  19
TORSDOF 3
ENDMDL
