./dock_file/liganddock202312151433/7Fluorotryptamine_PROamberH_GPCR5A_AF_selefeatureTOP200_color/7Fluorotryptamine_PROamberH_GPCR5A_AF_selefeatureTOP200_color_out_19.pdbqt
 OpenBabel12152314333D

 24 25  0  0  0  0  0  0  0  0999 V2000
  -16.2960   -0.1810   14.6360 C   0  0  0  0  0  0  0  0  0  0  0  0
  -15.9440    0.5880   15.3350 H   0  0  0  0  0  0  0  0  0  0  0  0
  -15.3930   -0.6890   14.2730 H   0  0  0  0  0  0  0  0  0  0  0  0
  -16.9930    0.4930   13.4950 C   0  0  0  0  0  0  0  0  0  0  0  0
  -16.4380    4.2670   13.0940 C   0  0  0  0  0  0  0  0  0  0  0  0
  -16.2760    3.0100   13.6940 C   0  0  0  0  0  0  0  0  0  0  0  0
  -17.2430    4.4150   11.9670 C   0  0  0  0  0  0  0  0  0  0  0  0
  -15.9320    5.1320   13.5150 H   0  0  0  0  0  0  0  0  0  0  0  0
  -16.9330    1.8830   13.1520 C   0  0  0  0  0  0  0  0  0  0  0  0
  -15.6470    2.9080   14.5740 H   0  0  0  0  0  0  0  0  0  0  0  0
  -17.8970    3.3130   11.4220 C   0  0  0  0  0  0  0  0  0  0  0  0
  -17.3690    5.3890   11.5040 H   0  0  0  0  0  0  0  0  0  0  0  0
  -17.7310    2.0660   12.0220 C   0  0  0  0  0  0  0  0  0  0  0  0
  -18.6710    3.4580   10.3380 F   0  0  0  0  0  0  0  0  0  0  0  0
  -18.2590    0.8430   11.6900 N   0  0  0  0  0  0  0  0  0  0  0  0
  -17.8150   -0.1120   12.5640 C   0  0  0  0  0  0  0  0  0  0  0  0
  -18.8860    0.6860   10.9130 H   0  0  0  0  0  0  0  0  0  0  0  0
  -18.1330   -1.1410   12.4620 H   0  0  0  0  0  0  0  0  0  0  0  0
  -17.1800   -1.1710   15.4080 C   0  0  0  0  0  0  0  0  0  0  0  0
  -17.1900   -0.8820   16.4650 H   0  0  0  0  0  0  0  0  0  0  0  0
  -18.2150   -1.1230   15.0480 H   0  0  0  0  0  0  0  0  0  0  0  0
  -16.7100   -2.5550   15.3230 N   0  0  0  0  0  0  0  0  0  0  0  0
  -16.2690   -2.8260   16.1990 H   0  0  0  0  0  0  0  0  0  0  0  0
  -17.5060   -3.1770   15.1880 H   0  0  0  0  0  0  0  0  0  0  0  0
  1  2  1  0  0  0  0
  1 19  1  0  0  0  0
  3  1  1  0  0  0  0
  4  1  1  0  0  0  0
  5  8  1  0  0  0  0
  5  6  2  0  0  0  0
  6 10  1  0  0  0  0
  7  5  1  0  0  0  0
  9  4  1  0  0  0  0
  9  6  1  0  0  0  0
 11  7  2  0  0  0  0
 11 13  1  0  0  0  0
 12  7  1  0  0  0  0
 13  9  2  0  0  0  0
 14 11  1  0  0  0  0
 15 13  1  0  0  0  0
 15 16  1  0  0  0  0
 16  4  2  0  0  0  0
 17 15  1  0  0  0  0
 18 16  1  0  0  0  0
 19 20  1  0  0  0  0
 21 19  1  0  0  0  0
 22 19  1  0  0  0  0
 22 23  1  0  0  0  0
 24 22  1  0  0  0  0
M  END
>  <MODEL>
1

>  <REMARK>
 VINA RESULT:      -5.0      0.000      0.000
 SMILES NCCc1c[nH]c2c(F)cccc12
 SMILES IDX 3 1 4 4 11 5 12 6 10 7 13 9 8 11 7 13 9 14 6 15 5 16 2 19
 SMILES IDX 1 22
 H PARENT 3 2 3 3 11 8 12 10 10 12 6 17 5 18 2 20 2 21 1 23 1 24
 Flexibility Score: inf

>  <TORSDO>
F 3

$$$$
./dock_file/liganddock202312151433/7Fluorotryptamine_PROamberH_GPCR5A_AF_selefeatureTOP200_color/7Fluorotryptamine_PROamberH_GPCR5A_AF_selefeatureTOP200_color_out_19.pdbqt
 OpenBabel12152314333D

 24 25  0  0  0  0  0  0  0  0999 V2000
  -23.5600   -0.1920   17.4250 C   0  0  0  0  0  0  0  0  0  0  0  0
  -23.7120    0.1450   16.3920 H   0  0  0  0  0  0  0  0  0  0  0  0
  -22.4760   -0.1500   17.5950 H   0  0  0  0  0  0  0  0  0  0  0  0
  -24.0380   -1.6070   17.5400 C   0  0  0  0  0  0  0  0  0  0  0  0
  -23.6340   -3.3140   20.9510 C   0  0  0  0  0  0  0  0  0  0  0  0
  -23.5280   -2.2610   20.0300 C   0  0  0  0  0  0  0  0  0  0  0  0
  -24.1910   -4.5330   20.5720 C   0  0  0  0  0  0  0  0  0  0  0  0
  -23.2760   -3.1760   21.9680 H   0  0  0  0  0  0  0  0  0  0  0  0
  -23.9900   -2.4380   18.7070 C   0  0  0  0  0  0  0  0  0  0  0  0
  -23.0910   -1.3160   20.3380 H   0  0  0  0  0  0  0  0  0  0  0  0
  -24.6500   -4.7210   19.2710 C   0  0  0  0  0  0  0  0  0  0  0  0
  -24.2710   -5.3470   21.2850 H   0  0  0  0  0  0  0  0  0  0  0  0
  -24.5430   -3.6710   18.3600 C   0  0  0  0  0  0  0  0  0  0  0  0
  -25.1840   -5.8950   18.9080 F   0  0  0  0  0  0  0  0  0  0  0  0
  -24.9100   -3.6000   17.0400 N   0  0  0  0  0  0  0  0  0  0  0  0
  -24.6180   -2.3600   16.5380 C   0  0  0  0  0  0  0  0  0  0  0  0
  -25.3290   -4.3610   16.5230 H   0  0  0  0  0  0  0  0  0  0  0  0
  -24.8330   -2.1200   15.5050 H   0  0  0  0  0  0  0  0  0  0  0  0
  -24.2780    0.7860   18.3660 C   0  0  0  0  0  0  0  0  0  0  0  0
  -25.3570    0.7130   18.1910 H   0  0  0  0  0  0  0  0  0  0  0  0
  -24.0990    0.5130   19.4130 H   0  0  0  0  0  0  0  0  0  0  0  0
  -23.8810    2.1810   18.1640 N   0  0  0  0  0  0  0  0  0  0  0  0
  -23.5530    2.3130   17.2090 H   0  0  0  0  0  0  0  0  0  0  0  0
  -24.6920    2.7860   18.2840 H   0  0  0  0  0  0  0  0  0  0  0  0
  1  4  1  0  0  0  0
  1  3  1  0  0  0  0
  1 19  1  0  0  0  0
  2  1  1  0  0  0  0
  4  9  1  0  0  0  0
  5  8  1  0  0  0  0
  6 10  1  0  0  0  0
  6  5  2  0  0  0  0
  7  5  1  0  0  0  0
  7 12  1  0  0  0  0
  9  6  1  0  0  0  0
 11  7  2  0  0  0  0
 13  9  2  0  0  0  0
 13 11  1  0  0  0  0
 14 11  1  0  0  0  0
 15 13  1  0  0  0  0
 16 15  1  0  0  0  0
 16  4  2  0  0  0  0
 17 15  1  0  0  0  0
 18 16  1  0  0  0  0
 19 21  1  0  0  0  0
 20 19  1  0  0  0  0
 22 24  1  0  0  0  0
 22 19  1  0  0  0  0
 23 22  1  0  0  0  0
M  END
>  <REMARK>
 VINA RESULT:      -4.5      8.964     10.825
 SMILES NCCc1c[nH]c2c(F)cccc12
 SMILES IDX 3 1 4 4 11 5 12 6 10 7 13 9 8 11 7 13 9 14 6 15 5 16 2 19
 SMILES IDX 1 22
 H PARENT 3 2 3 3 11 8 12 10 10 12 6 17 5 18 2 20 2 21 1 23 1 24
 Flexibility Score: inf

>  <TORSDO>
F 3

$$$$
./dock_file/liganddock202312151433/7Fluorotryptamine_PROamberH_GPCR5A_AF_selefeatureTOP200_color/7Fluorotryptamine_PROamberH_GPCR5A_AF_selefeatureTOP200_color_out_19.pdbqt
 OpenBabel12152314333D

 24 25  0  0  0  0  0  0  0  0999 V2000
  -24.2440   -2.4480   16.9930 C   0  0  0  0  0  0  0  0  0  0  0  0
  -23.2080   -2.7980   16.8950 H   0  0  0  0  0  0  0  0  0  0  0  0
  -24.1770   -1.3690   17.1830 H   0  0  0  0  0  0  0  0  0  0  0  0
  -24.8700   -3.1340   18.1670 C   0  0  0  0  0  0  0  0  0  0  0  0
  -24.9810   -1.1890   21.4710 C   0  0  0  0  0  0  0  0  0  0  0  0
  -24.6800   -1.3860   20.1150 C   0  0  0  0  0  0  0  0  0  0  0  0
  -25.6170   -2.1850   22.2070 C   0  0  0  0  0  0  0  0  0  0  0  0
  -24.7150   -0.2500   21.9490 H   0  0  0  0  0  0  0  0  0  0  0  0
  -25.0230   -2.6050   19.4910 C   0  0  0  0  0  0  0  0  0  0  0  0
  -24.1820   -0.6010   19.5530 H   0  0  0  0  0  0  0  0  0  0  0  0
  -25.9600   -3.3930   21.6040 C   0  0  0  0  0  0  0  0  0  0  0  0
  -25.8490   -2.0320   23.2560 H   0  0  0  0  0  0  0  0  0  0  0  0
  -25.6580   -3.5830   20.2570 C   0  0  0  0  0  0  0  0  0  0  0  0
  -26.5700   -4.3500   22.3150 F   0  0  0  0  0  0  0  0  0  0  0  0
  -25.8830   -4.6630   19.4400 N   0  0  0  0  0  0  0  0  0  0  0  0
  -25.4200   -4.4020   18.1790 C   0  0  0  0  0  0  0  0  0  0  0  0
  -26.3230   -5.5220   19.7410 H   0  0  0  0  0  0  0  0  0  0  0  0
  -25.5050   -5.1440   17.3960 H   0  0  0  0  0  0  0  0  0  0  0  0
  -24.9700   -2.7030   15.6640 C   0  0  0  0  0  0  0  0  0  0  0  0
  -24.3860   -3.4210   15.0770 H   0  0  0  0  0  0  0  0  0  0  0  0
  -25.9540   -3.1520   15.8430 H   0  0  0  0  0  0  0  0  0  0  0  0
  -25.1390   -1.4930   14.8560 N   0  0  0  0  0  0  0  0  0  0  0  0
  -25.0730   -0.6690   15.4480 H   0  0  0  0  0  0  0  0  0  0  0  0
  -24.3830   -1.4300   14.1760 H   0  0  0  0  0  0  0  0  0  0  0  0
  1  3  1  0  0  0  0
  1  4  1  0  0  0  0
  2  1  1  0  0  0  0
  4 16  2  0  0  0  0
  4  9  1  0  0  0  0
  5  8  1  0  0  0  0
  5  7  2  0  0  0  0
  6  5  1  0  0  0  0
  7 12  1  0  0  0  0
  9  6  2  0  0  0  0
  9 13  1  0  0  0  0
 10  6  1  0  0  0  0
 11  7  1  0  0  0  0
 11 14  1  0  0  0  0
 13 11  2  0  0  0  0
 15 17  1  0  0  0  0
 15 13  1  0  0  0  0
 16 15  1  0  0  0  0
 18 16  1  0  0  0  0
 19 21  1  0  0  0  0
 19  1  1  0  0  0  0
 20 19  1  0  0  0  0
 22 23  1  0  0  0  0
 22 19  1  0  0  0  0
 24 22  1  0  0  0  0
M  END
>  <REMARK>
 VINA RESULT:      -4.4     10.020     11.942
 SMILES NCCc1c[nH]c2c(F)cccc12
 SMILES IDX 3 1 4 4 11 5 12 6 10 7 13 9 8 11 7 13 9 14 6 15 5 16 2 19
 SMILES IDX 1 22
 H PARENT 3 2 3 3 11 8 12 10 10 12 6 17 5 18 2 20 2 21 1 23 1 24
 Flexibility Score: inf

>  <TORSDO>
F 3

$$$$
