./dock_file/liganddock202312151433/7Fluorotryptamine_PROamberH_GPCR5A_AF_selefeatureTOP200_color/7Fluorotryptamine_PROamberH_GPCR5A_AF_selefeatureTOP200_color_out_11.pdbqt
 OpenBabel12152314333D

 24 25  0  0  0  0  0  0  0  0999 V2000
  -13.8990  -11.7280    8.7730 C   0  0  0  0  0  0  0  0  0  0  0  0
  -13.7760  -10.6440    8.8910 H   0  0  0  0  0  0  0  0  0  0  0  0
  -12.8920  -12.1240    8.5880 H   0  0  0  0  0  0  0  0  0  0  0  0
  -14.7720  -11.9830    7.5830 C   0  0  0  0  0  0  0  0  0  0  0  0
  -13.4800  -10.7750    4.1790 C   0  0  0  0  0  0  0  0  0  0  0  0
  -13.4290  -10.9720    5.5670 C   0  0  0  0  0  0  0  0  0  0  0  0
  -14.5750  -11.2180    3.4410 C   0  0  0  0  0  0  0  0  0  0  0  0
  -12.6580  -10.2720    3.6780 H   0  0  0  0  0  0  0  0  0  0  0  0
  -14.4960  -11.6250    6.2230 C   0  0  0  0  0  0  0  0  0  0  0  0
  -12.5700  -10.6210    6.1320 H   0  0  0  0  0  0  0  0  0  0  0  0
  -15.6340  -11.8620    4.0750 C   0  0  0  0  0  0  0  0  0  0  0  0
  -14.6140  -11.0640    2.3680 H   0  0  0  0  0  0  0  0  0  0  0  0
  -15.5780  -12.0550    5.4540 C   0  0  0  0  0  0  0  0  0  0  0  0
  -16.6870  -12.2860    3.3620 F   0  0  0  0  0  0  0  0  0  0  0  0
  -16.4770  -12.6480    6.3050 N   0  0  0  0  0  0  0  0  0  0  0  0
  -15.9990  -12.6180    7.5870 C   0  0  0  0  0  0  0  0  0  0  0  0
  -17.3610  -13.0430    6.0150 H   0  0  0  0  0  0  0  0  0  0  0  0
  -16.5770  -13.0360    8.4000 H   0  0  0  0  0  0  0  0  0  0  0  0
  -14.4550  -12.3000   10.0850 C   0  0  0  0  0  0  0  0  0  0  0  0
  -15.3070  -12.9480    9.8530 H   0  0  0  0  0  0  0  0  0  0  0  0
  -13.7010  -12.9200   10.5850 H   0  0  0  0  0  0  0  0  0  0  0  0
  -14.9150  -11.2670   11.0170 N   0  0  0  0  0  0  0  0  0  0  0  0
  -14.6830  -11.5340   11.9720 H   0  0  0  0  0  0  0  0  0  0  0  0
  -14.4250  -10.3950   10.8260 H   0  0  0  0  0  0  0  0  0  0  0  0
  1  2  1  0  0  0  0
  1 19  1  0  0  0  0
  3  1  1  0  0  0  0
  4 16  2  0  0  0  0
  4  1  1  0  0  0  0
  5  6  2  0  0  0  0
  6 10  1  0  0  0  0
  6  9  1  0  0  0  0
  7 11  2  0  0  0  0
  7  5  1  0  0  0  0
  8  5  1  0  0  0  0
  9  4  1  0  0  0  0
 11 13  1  0  0  0  0
 12  7  1  0  0  0  0
 13  9  2  0  0  0  0
 13 15  1  0  0  0  0
 14 11  1  0  0  0  0
 15 16  1  0  0  0  0
 16 18  1  0  0  0  0
 17 15  1  0  0  0  0
 19 21  1  0  0  0  0
 19 22  1  0  0  0  0
 20 19  1  0  0  0  0
 22 23  1  0  0  0  0
 24 22  1  0  0  0  0
M  END
>  <MODEL>
1

>  <REMARK>
 VINA RESULT:      -3.7      0.000      0.000
 SMILES NCCc1c[nH]c2c(F)cccc12
 SMILES IDX 3 1 4 4 11 5 12 6 10 7 13 9 8 11 7 13 9 14 6 15 5 16 2 19
 SMILES IDX 1 22
 H PARENT 3 2 3 3 11 8 12 10 10 12 6 17 5 18 2 20 2 21 1 23 1 24
 Flexibility Score: inf

>  <TORSDO>
F 3

$$$$
./dock_file/liganddock202312151433/7Fluorotryptamine_PROamberH_GPCR5A_AF_selefeatureTOP200_color/7Fluorotryptamine_PROamberH_GPCR5A_AF_selefeatureTOP200_color_out_11.pdbqt
 OpenBabel12152314333D

 24 25  0  0  0  0  0  0  0  0999 V2000
  -18.6720  -12.1510    5.5460 C   0  0  0  0  0  0  0  0  0  0  0  0
  -18.8840  -13.2120    5.3620 H   0  0  0  0  0  0  0  0  0  0  0  0
  -18.6720  -11.6710    4.5590 H   0  0  0  0  0  0  0  0  0  0  0  0
  -17.3140  -12.0380    6.1670 C   0  0  0  0  0  0  0  0  0  0  0  0
  -14.4200  -11.0270    3.8610 C   0  0  0  0  0  0  0  0  0  0  0  0
  -15.7510  -11.3350    4.1790 C   0  0  0  0  0  0  0  0  0  0  0  0
  -13.4330  -11.0560    4.8430 C   0  0  0  0  0  0  0  0  0  0  0  0
  -14.1590  -10.7660    2.8390 H   0  0  0  0  0  0  0  0  0  0  0  0
  -16.0940  -11.6760    5.5050 C   0  0  0  0  0  0  0  0  0  0  0  0
  -16.5110  -11.3110    3.4040 H   0  0  0  0  0  0  0  0  0  0  0  0
  -13.7570  -11.3920    6.1540 C   0  0  0  0  0  0  0  0  0  0  0  0
  -12.4030  -10.8190    4.5950 H   0  0  0  0  0  0  0  0  0  0  0  0
  -15.0820  -11.6960    6.4640 C   0  0  0  0  0  0  0  0  0  0  0  0
  -12.8050  -11.4200    7.0970 F   0  0  0  0  0  0  0  0  0  0  0  0
  -15.6540  -12.0550    7.6590 N   0  0  0  0  0  0  0  0  0  0  0  0
  -16.9980  -12.2560    7.4940 C   0  0  0  0  0  0  0  0  0  0  0  0
  -15.1450  -12.1580    8.5270 H   0  0  0  0  0  0  0  0  0  0  0  0
  -17.6170  -12.5520    8.3300 H   0  0  0  0  0  0  0  0  0  0  0  0
  -19.8010  -11.5740    6.4120 C   0  0  0  0  0  0  0  0  0  0  0  0
  -19.9440  -12.2240    7.2820 H   0  0  0  0  0  0  0  0  0  0  0  0
  -19.5280  -10.5810    6.7890 H   0  0  0  0  0  0  0  0  0  0  0  0
  -21.0810  -11.4780    5.7050 N   0  0  0  0  0  0  0  0  0  0  0  0
  -21.4800  -12.4060    5.5840 H   0  0  0  0  0  0  0  0  0  0  0  0
  -21.7410  -10.9440    6.2690 H   0  0  0  0  0  0  0  0  0  0  0  0
  1  4  1  0  0  0  0
  1 19  1  0  0  0  0
  2  1  1  0  0  0  0
  3  1  1  0  0  0  0
  4 16  2  0  0  0  0
  5  6  2  0  0  0  0
  5  7  1  0  0  0  0
  6  9  1  0  0  0  0
  7 11  2  0  0  0  0
  8  5  1  0  0  0  0
  9  4  1  0  0  0  0
  9 13  2  0  0  0  0
 10  6  1  0  0  0  0
 11 13  1  0  0  0  0
 11 14  1  0  0  0  0
 12  7  1  0  0  0  0
 13 15  1  0  0  0  0
 15 17  1  0  0  0  0
 16 15  1  0  0  0  0
 16 18  1  0  0  0  0
 19 21  1  0  0  0  0
 19 20  1  0  0  0  0
 22 24  1  0  0  0  0
 22 19  1  0  0  0  0
 23 22  1  0  0  0  0
M  END
>  <REMARK>
 VINA RESULT:      -3.6      2.620      4.008
 SMILES NCCc1c[nH]c2c(F)cccc12
 SMILES IDX 3 1 4 4 11 5 12 6 10 7 13 9 8 11 7 13 9 14 6 15 5 16 2 19
 SMILES IDX 1 22
 H PARENT 3 2 3 3 11 8 12 10 10 12 6 17 5 18 2 20 2 21 1 23 1 24
 Flexibility Score: inf

>  <TORSDO>
F 3

$$$$
./dock_file/liganddock202312151433/7Fluorotryptamine_PROamberH_GPCR5A_AF_selefeatureTOP200_color/7Fluorotryptamine_PROamberH_GPCR5A_AF_selefeatureTOP200_color_out_11.pdbqt
 OpenBabel12152314333D

 24 25  0  0  0  0  0  0  0  0999 V2000
  -18.4980  -12.1320    7.8840 C   0  0  0  0  0  0  0  0  0  0  0  0
  -18.0940  -12.0740    8.9020 H   0  0  0  0  0  0  0  0  0  0  0  0
  -18.9240  -13.1390    7.7880 H   0  0  0  0  0  0  0  0  0  0  0  0
  -17.3710  -11.9620    6.9130 C   0  0  0  0  0  0  0  0  0  0  0  0
  -13.8270  -11.7690    8.3680 C   0  0  0  0  0  0  0  0  0  0  0  0
  -15.2230  -11.8920    8.4210 C   0  0  0  0  0  0  0  0  0  0  0  0
  -13.1750  -11.6220    7.1470 C   0  0  0  0  0  0  0  0  0  0  0  0
  -13.2520  -11.7870    9.2900 H   0  0  0  0  0  0  0  0  0  0  0  0
  -15.9750  -11.8670    7.2250 C   0  0  0  0  0  0  0  0  0  0  0  0
  -15.7210  -12.0040    9.3790 H   0  0  0  0  0  0  0  0  0  0  0  0
  -13.9030  -11.5960    5.9610 C   0  0  0  0  0  0  0  0  0  0  0  0
  -12.0940  -11.5260    7.1080 H   0  0  0  0  0  0  0  0  0  0  0  0
  -15.2900  -11.7190    6.0190 C   0  0  0  0  0  0  0  0  0  0  0  0
  -13.2720  -11.4530    4.7870 F   0  0  0  0  0  0  0  0  0  0  0  0
  -16.2240  -11.7200    5.0130 N   0  0  0  0  0  0  0  0  0  0  0  0
  -17.4780  -11.8740    5.5380 C   0  0  0  0  0  0  0  0  0  0  0  0
  -16.0040  -11.6170    4.0310 H   0  0  0  0  0  0  0  0  0  0  0  0
  -18.3470  -11.8920    4.8930 H   0  0  0  0  0  0  0  0  0  0  0  0
  -19.6060  -11.0780    7.7400 C   0  0  0  0  0  0  0  0  0  0  0  0
  -20.0010  -11.1210    6.7190 H   0  0  0  0  0  0  0  0  0  0  0  0
  -20.4370  -11.2980    8.4210 H   0  0  0  0  0  0  0  0  0  0  0  0
  -19.1390   -9.7110    7.9850 N   0  0  0  0  0  0  0  0  0  0  0  0
  -18.6630   -9.6630    8.8830 H   0  0  0  0  0  0  0  0  0  0  0  0
  -18.4570   -9.4530    7.2750 H   0  0  0  0  0  0  0  0  0  0  0  0
  1  2  1  0  0  0  0
  3  1  1  0  0  0  0
  4  9  1  0  0  0  0
  4  1  1  0  0  0  0
  5  6  1  0  0  0  0
  5  8  1  0  0  0  0
  6 10  1  0  0  0  0
  7  5  2  0  0  0  0
  9  6  2  0  0  0  0
 11 13  2  0  0  0  0
 11  7  1  0  0  0  0
 12  7  1  0  0  0  0
 13  9  1  0  0  0  0
 14 11  1  0  0  0  0
 15 16  1  0  0  0  0
 15 13  1  0  0  0  0
 16  4  2  0  0  0  0
 17 15  1  0  0  0  0
 18 16  1  0  0  0  0
 19  1  1  0  0  0  0
 19 22  1  0  0  0  0
 19 21  1  0  0  0  0
 20 19  1  0  0  0  0
 22 23  1  0  0  0  0
 24 22  1  0  0  0  0
M  END
>  <REMARK>
 VINA RESULT:      -3.6      2.308      3.651
 SMILES NCCc1c[nH]c2c(F)cccc12
 SMILES IDX 3 1 4 4 11 5 12 6 10 7 13 9 8 11 7 13 9 14 6 15 5 16 2 19
 SMILES IDX 1 22
 H PARENT 3 2 3 3 11 8 12 10 10 12 6 17 5 18 2 20 2 21 1 23 1 24
 Flexibility Score: inf

>  <TORSDO>
F 3

$$$$
