MODEL 1
REMARK VINA RESULT:      -5.1      0.000      0.000
REMARK SMILES NCCc1c[nH]c2c(F)cccc12
REMARK SMILES IDX 3 1 4 4 11 5 12 6 10 7 13 9 8 11 7 13 9 14 6 15 5 16 2 19
REMARK SMILES IDX 1 22
REMARK H PARENT 3 2 3 3 11 8 12 10 10 12 6 17 5 18 2 20 2 21 1 23 1 24
REMARK Flexibility Score: inf
ROOT
ATOM      1  C   UNL     1      17.719  14.756 -21.094  1.00  0.00    -0.013 C 
ATOM      2  H   UNL     1      17.962  13.699 -20.927  1.00  0.00     0.033 H 
ATOM      3  H   UNL     1      18.387  15.323 -20.434  1.00  0.00     0.033 H 
ENDROOT
BRANCH   1   4
ATOM      4  C   UNL     1      16.294  14.987 -20.695  1.00  0.00    -0.021 A 
ATOM      5  C   UNL     1      14.933  12.888 -17.788  1.00  0.00    -0.059 A 
ATOM      6  C   UNL     1      15.902  13.323 -18.704  1.00  0.00    -0.052 A 
ATOM      7  C   UNL     1      13.653  13.435 -17.798  1.00  0.00    -0.024 A 
ATOM      8  H   UNL     1      15.186  12.116 -17.066  1.00  0.00     0.062 H 
ATOM      9  C   UNL     1      15.578  14.324 -19.645  1.00  0.00     0.006 A 
ATOM     10  H   UNL     1      16.896  12.886 -18.687  1.00  0.00     0.063 H 
ATOM     11  C   UNL     1      13.319  14.423 -18.720  1.00  0.00     0.147 A 
ATOM     12  H   UNL     1      12.904  13.097 -17.089  1.00  0.00     0.065 H 
ATOM     13  C   UNL     1      14.286  14.852 -19.628  1.00  0.00     0.082 A 
ATOM     14  F   UNL     1      12.086  14.948 -18.728  1.00  0.00    -0.205 F 
ATOM     15  N   UNL     1      14.214  15.793 -20.624  1.00  0.00    -0.359 N 
ATOM     16  C   UNL     1      15.418  15.889 -21.268  1.00  0.00     0.005 A 
ATOM     17  H   UNL     1      13.384  16.328 -20.843  1.00  0.00     0.166 HD
ATOM     18  H   UNL     1      15.549  16.579 -22.091  1.00  0.00     0.082 H 
ENDBRANCH   1   4
BRANCH   1  19
ATOM     19  C   UNL     1      18.016  15.096 -22.562  1.00  0.00    -0.004 C 
ATOM     20  H   UNL     1      18.550  14.254 -23.016  1.00  0.00     0.043 H 
ATOM     21  H   UNL     1      17.083  15.231 -23.122  1.00  0.00     0.043 H 
BRANCH  19  22
ATOM     22  N   UNL     1      18.844  16.294 -22.722  1.00  0.00    -0.330 NA
ATOM     23  H   UNL     1      18.775  16.876 -21.890  1.00  0.00     0.118 HD
ATOM     24  H   UNL     1      19.822  16.021 -22.811  1.00  0.00     0.118 HD
ENDBRANCH  19  22
ENDBRANCH   1  19
TORSDOF 3
ENDMDL
MODEL 2
REMARK VINA RESULT:      -4.9      2.452      4.778
REMARK SMILES NCCc1c[nH]c2c(F)cccc12
REMARK SMILES IDX 3 1 4 4 11 5 12 6 10 7 13 9 8 11 7 13 9 14 6 15 5 16 2 19
REMARK SMILES IDX 1 22
REMARK H PARENT 3 2 3 3 11 8 12 10 10 12 6 17 5 18 2 20 2 21 1 23 1 24
REMARK Flexibility Score: inf
ROOT
ATOM      1  C   UNL     1      13.796  12.069 -17.311  1.00  0.00    -0.013 C 
ATOM      2  H   UNL     1      13.940  11.158 -17.907  1.00  0.00     0.033 H 
ATOM      3  H   UNL     1      12.736  12.075 -17.028  1.00  0.00     0.033 H 
ENDROOT
BRANCH   1   4
ATOM      4  C   UNL     1      14.100  13.256 -18.173  1.00  0.00    -0.021 A 
ATOM      5  C   UNL     1      17.446  13.243 -20.048  1.00  0.00    -0.059 A 
ATOM      6  C   UNL     1      16.460  12.728 -19.193  1.00  0.00    -0.052 A 
ATOM      7  C   UNL     1      17.271  14.477 -20.669  1.00  0.00    -0.024 A 
ATOM      8  H   UNL     1      18.354  12.673 -20.224  1.00  0.00     0.062 H 
ATOM      9  C   UNL     1      15.279  13.467 -18.960  1.00  0.00     0.006 A 
ATOM     10  H   UNL     1      16.609  11.766 -18.713  1.00  0.00     0.063 H 
ATOM     11  C   UNL     1      16.112  15.216 -20.448  1.00  0.00     0.147 A 
ATOM     12  H   UNL     1      18.035  14.875 -21.329  1.00  0.00     0.065 H 
ATOM     13  C   UNL     1      15.135  14.700 -19.598  1.00  0.00     0.082 A 
ATOM     14  F   UNL     1      15.946  16.404 -21.046  1.00  0.00    -0.205 F 
ATOM     15  N   UNL     1      13.924  15.221 -19.216  1.00  0.00    -0.359 N 
ATOM     16  C   UNL     1      13.289  14.358 -18.365  1.00  0.00     0.005 A 
ATOM     17  H   UNL     1      13.567  16.116 -19.523  1.00  0.00     0.166 HD
ATOM     18  H   UNL     1      12.319  14.604 -17.954  1.00  0.00     0.082 H 
ENDBRANCH   1   4
BRANCH   1  19
ATOM     19  C   UNL     1      14.675  11.971 -16.055  1.00  0.00    -0.004 C 
ATOM     20  H   UNL     1      14.679  10.932 -15.710  1.00  0.00     0.043 H 
ATOM     21  H   UNL     1      15.711  12.241 -16.289  1.00  0.00     0.043 H 
BRANCH  19  22
ATOM     22  N   UNL     1      14.202  12.811 -14.952  1.00  0.00    -0.330 NA
ATOM     23  H   UNL     1      13.296  13.212 -15.185  1.00  0.00     0.118 HD
ATOM     24  H   UNL     1      14.066  12.236 -14.122  1.00  0.00     0.118 HD
ENDBRANCH  19  22
ENDBRANCH   1  19
TORSDOF 3
ENDMDL
MODEL 3
REMARK VINA RESULT:      -4.9      3.171      5.451
REMARK SMILES NCCc1c[nH]c2c(F)cccc12
REMARK SMILES IDX 3 1 4 4 11 5 12 6 10 7 13 9 8 11 7 13 9 14 6 15 5 16 2 19
REMARK SMILES IDX 1 22
REMARK H PARENT 3 2 3 3 11 8 12 10 10 12 6 17 5 18 2 20 2 21 1 23 1 24
REMARK Flexibility Score: inf
ROOT
ATOM      1  C   UNL     1      14.021  12.707 -17.153  1.00  0.00    -0.013 C 
ATOM      2  H   UNL     1      13.148  12.283 -17.666  1.00  0.00     0.033 H 
ATOM      3  H   UNL     1      13.749  13.742 -16.908  1.00  0.00     0.033 H 
ENDROOT
BRANCH   1   4
ATOM      4  C   UNL     1      15.182  12.698 -18.100  1.00  0.00    -0.021 A 
ATOM      5  C   UNL     1      15.496  15.669 -20.505  1.00  0.00    -0.059 A 
ATOM      6  C   UNL     1      14.909  14.915 -19.479  1.00  0.00    -0.052 A 
ATOM      7  C   UNL     1      16.656  15.225 -21.136  1.00  0.00    -0.024 A 
ATOM      8  H   UNL     1      15.039  16.607 -20.811  1.00  0.00     0.062 H 
ATOM      9  C   UNL     1      15.499  13.695 -19.080  1.00  0.00     0.006 A 
ATOM     10  H   UNL     1      14.004  15.271 -18.996  1.00  0.00     0.063 H 
ATOM     11  C   UNL     1      17.247  14.025 -20.753  1.00  0.00     0.147 A 
ATOM     12  H   UNL     1      17.108  15.810 -21.931  1.00  0.00     0.065 H 
ATOM     13  C   UNL     1      16.660  13.280 -19.732  1.00  0.00     0.082 A 
ATOM     14  F   UNL     1      18.363  13.599 -21.362  1.00  0.00    -0.205 F 
ATOM     15  N   UNL     1      17.036  12.081 -19.178  1.00  0.00    -0.359 N 
ATOM     16  C   UNL     1      16.158  11.725 -18.190  1.00  0.00     0.005 A 
ATOM     17  H   UNL     1      17.843  11.547 -19.471  1.00  0.00     0.166 HD
ATOM     18  H   UNL     1      16.291  10.801 -17.643  1.00  0.00     0.082 H 
ENDBRANCH   1   4
BRANCH   1  19
ATOM     19  C   UNL     1      14.263  11.908 -15.865  1.00  0.00    -0.004 C 
ATOM     20  H   UNL     1      13.512  11.113 -15.798  1.00  0.00     0.043 H 
ATOM     21  H   UNL     1      15.247  11.424 -15.892  1.00  0.00     0.043 H 
BRANCH  19  22
ATOM     22  N   UNL     1      14.167  12.722 -14.652  1.00  0.00    -0.330 NA
ATOM     23  H   UNL     1      14.104  13.707 -14.900  1.00  0.00     0.118 HD
ATOM     24  H   UNL     1      13.310  12.488 -14.153  1.00  0.00     0.118 HD
ENDBRANCH  19  22
ENDBRANCH   1  19
TORSDOF 3
ENDMDL
