MODEL 1
REMARK VINA RESULT:      -5.5      0.000      0.000
REMARK SMILES NCCc1c[nH]c2c(F)cccc12
REMARK SMILES IDX 3 1 4 4 11 5 12 6 10 7 13 9 8 11 7 13 9 14 6 15 5 16 2 19
REMARK SMILES IDX 1 22
REMARK H PARENT 3 2 3 3 11 8 12 10 10 12 6 17 5 18 2 20 2 21 1 23 1 24
REMARK Flexibility Score: inf
ROOT
ATOM      1  C   UNL     1      14.046  -5.966  -3.935  1.00  0.00    -0.013 C 
ATOM      2  H   UNL     1      13.624  -6.905  -3.555  1.00  0.00     0.033 H 
ATOM      3  H   UNL     1      13.204  -5.416  -4.375  1.00  0.00     0.033 H 
ENDROOT
BRANCH   1   4
ATOM      4  C   UNL     1      15.051  -6.290  -4.998  1.00  0.00    -0.021 A 
ATOM      5  C   UNL     1      13.882  -8.535  -7.880  1.00  0.00    -0.059 A 
ATOM      6  C   UNL     1      13.742  -7.820  -6.681  1.00  0.00    -0.052 A 
ATOM      7  C   UNL     1      15.096  -8.542  -8.562  1.00  0.00    -0.024 A 
ATOM      8  H   UNL     1      13.034  -9.087  -8.277  1.00  0.00     0.062 H 
ATOM      9  C   UNL     1      14.841  -7.102  -6.160  1.00  0.00     0.006 A 
ATOM     10  H   UNL     1      12.790  -7.824  -6.157  1.00  0.00     0.063 H 
ATOM     11  C   UNL     1      16.188  -7.839  -8.060  1.00  0.00     0.147 A 
ATOM     12  H   UNL     1      15.203  -9.096  -9.489  1.00  0.00     0.065 H 
ATOM     13  C   UNL     1      16.042  -7.131  -6.868  1.00  0.00     0.082 A 
ATOM     14  F   UNL     1      17.355  -7.849  -8.717  1.00  0.00    -0.205 F 
ATOM     15  N   UNL     1      16.949  -6.372  -6.170  1.00  0.00    -0.359 N 
ATOM     16  C   UNL     1      16.362  -5.855  -5.047  1.00  0.00     0.005 A 
ATOM     17  H   UNL     1      17.909  -6.229  -6.453  1.00  0.00     0.166 HD
ATOM     18  H   UNL     1      16.927  -5.233  -4.367  1.00  0.00     0.082 H 
ENDBRANCH   1   4
BRANCH   1  19
ATOM     19  C   UNL     1      14.626  -5.179  -2.751  1.00  0.00    -0.004 C 
ATOM     20  H   UNL     1      14.486  -5.767  -1.837  1.00  0.00     0.043 H 
ATOM     21  H   UNL     1      15.705  -5.029  -2.879  1.00  0.00     0.043 H 
BRANCH  19  22
ATOM     22  N   UNL     1      13.986  -3.877  -2.552  1.00  0.00    -0.330 NA
ATOM     23  H   UNL     1      13.820  -3.720  -1.561  1.00  0.00     0.118 HD
ATOM     24  H   UNL     1      14.613  -3.138  -2.867  1.00  0.00     0.118 HD
ENDBRANCH  19  22
ENDBRANCH   1  19
TORSDOF 3
ENDMDL
MODEL 2
REMARK VINA RESULT:      -5.5      1.552      1.667
REMARK SMILES NCCc1c[nH]c2c(F)cccc12
REMARK SMILES IDX 3 1 4 4 11 5 12 6 10 7 13 9 8 11 7 13 9 14 6 15 5 16 2 19
REMARK SMILES IDX 1 22
REMARK H PARENT 3 2 3 3 11 8 12 10 10 12 6 17 5 18 2 20 2 21 1 23 1 24
REMARK Flexibility Score: inf
ROOT
ATOM      1  C   UNL     1      16.217  -5.553  -4.089  1.00  0.00    -0.013 C 
ATOM      2  H   UNL     1      17.151  -5.569  -3.512  1.00  0.00     0.033 H 
ATOM      3  H   UNL     1      15.499  -6.147  -3.510  1.00  0.00     0.033 H 
ENDROOT
BRANCH   1   4
ATOM      4  C   UNL     1      16.465  -6.205  -5.414  1.00  0.00    -0.021 A 
ATOM      5  C   UNL     1      13.498  -7.990  -7.064  1.00  0.00    -0.059 A 
ATOM      6  C   UNL     1      14.147  -7.250  -6.065  1.00  0.00    -0.052 A 
ATOM      7  C   UNL     1      14.189  -8.405  -8.199  1.00  0.00    -0.024 A 
ATOM      8  H   UNL     1      12.447  -8.241  -6.949  1.00  0.00     0.062 H 
ATOM      9  C   UNL     1      15.513  -6.922  -6.210  1.00  0.00     0.006 A 
ATOM     10  H   UNL     1      13.597  -6.933  -5.184  1.00  0.00     0.063 H 
ATOM     11  C   UNL     1      15.536  -8.090  -8.356  1.00  0.00     0.147 A 
ATOM     12  H   UNL     1      13.686  -8.978  -8.972  1.00  0.00     0.065 H 
ATOM     13  C   UNL     1      16.176  -7.354  -7.359  1.00  0.00     0.082 A 
ATOM     14  F   UNL     1      16.200  -8.492  -9.448  1.00  0.00    -0.205 F 
ATOM     15  N   UNL     1      17.476  -6.923  -7.270  1.00  0.00    -0.359 N 
ATOM     16  C   UNL     1      17.660  -6.224  -6.108  1.00  0.00     0.005 A 
ATOM     17  H   UNL     1      18.186  -7.105  -7.967  1.00  0.00     0.166 HD
ATOM     18  H   UNL     1      18.629  -5.810  -5.862  1.00  0.00     0.082 H 
ENDBRANCH   1   4
BRANCH   1  19
ATOM     19  C   UNL     1      15.735  -4.099  -4.192  1.00  0.00    -0.004 C 
ATOM     20  H   UNL     1      14.639  -4.093  -4.202  1.00  0.00     0.043 H 
ATOM     21  H   UNL     1      16.056  -3.524  -3.316  1.00  0.00     0.043 H 
BRANCH  19  22
ATOM     22  N   UNL     1      16.200  -3.419  -5.404  1.00  0.00    -0.330 NA
ATOM     23  H   UNL     1      15.408  -3.016  -5.900  1.00  0.00     0.118 HD
ATOM     24  H   UNL     1      16.812  -2.647  -5.146  1.00  0.00     0.118 HD
ENDBRANCH  19  22
ENDBRANCH   1  19
TORSDOF 3
ENDMDL
MODEL 3
REMARK VINA RESULT:      -5.4      2.132      3.339
REMARK SMILES NCCc1c[nH]c2c(F)cccc12
REMARK SMILES IDX 3 1 4 4 11 5 12 6 10 7 13 9 8 11 7 13 9 14 6 15 5 16 2 19
REMARK SMILES IDX 1 22
REMARK H PARENT 3 2 3 3 11 8 12 10 10 12 6 17 5 18 2 20 2 21 1 23 1 24
REMARK Flexibility Score: inf
ROOT
ATOM      1  C   UNL     1      17.899  -5.384  -5.704  1.00  0.00    -0.013 C 
ATOM      2  H   UNL     1      18.610  -5.891  -6.370  1.00  0.00     0.033 H 
ATOM      3  H   UNL     1      18.307  -5.496  -4.692  1.00  0.00     0.033 H 
ENDROOT
BRANCH   1   4
ATOM      4  C   UNL     1      16.577  -6.081  -5.798  1.00  0.00    -0.021 A 
ATOM      5  C   UNL     1      15.979  -8.283  -8.881  1.00  0.00    -0.059 A 
ATOM      6  C   UNL     1      16.708  -7.417  -8.053  1.00  0.00    -0.052 A 
ATOM      7  C   UNL     1      14.693  -8.685  -8.527  1.00  0.00    -0.024 A 
ATOM      8  H   UNL     1      16.422  -8.641  -9.806  1.00  0.00     0.062 H 
ATOM      9  C   UNL     1      16.135  -6.949  -6.851  1.00  0.00     0.006 A 
ATOM     10  H   UNL     1      17.709  -7.110  -8.341  1.00  0.00     0.063 H 
ATOM     11  C   UNL     1      14.116  -8.231  -7.345  1.00  0.00     0.147 A 
ATOM     12  H   UNL     1      14.130  -9.355  -9.169  1.00  0.00     0.065 H 
ATOM     13  C   UNL     1      14.846  -7.370  -6.526  1.00  0.00     0.082 A 
ATOM     14  F   UNL     1      12.879  -8.618  -7.007  1.00  0.00    -0.205 F 
ATOM     15  N   UNL     1      14.511  -6.786  -5.330  1.00  0.00    -0.359 N 
ATOM     16  C   UNL     1      15.547  -6.014  -4.879  1.00  0.00     0.005 A 
ATOM     17  H   UNL     1      13.623  -6.912  -4.863  1.00  0.00     0.166 HD
ATOM     18  H   UNL     1      15.463  -5.468  -3.949  1.00  0.00     0.082 H 
ENDBRANCH   1   4
BRANCH   1  19
ATOM     19  C   UNL     1      17.848  -3.899  -6.090  1.00  0.00    -0.004 C 
ATOM     20  H   UNL     1      16.942  -3.720  -6.678  1.00  0.00     0.043 H 
ATOM     21  H   UNL     1      17.783  -3.271  -5.193  1.00  0.00     0.043 H 
BRANCH  19  22
ATOM     22  N   UNL     1      18.997  -3.469  -6.890  1.00  0.00    -0.330 NA
ATOM     23  H   UNL     1      19.808  -3.338  -6.289  1.00  0.00     0.118 HD
ATOM     24  H   UNL     1      19.238  -4.199  -7.558  1.00  0.00     0.118 HD
ENDBRANCH  19  22
ENDBRANCH   1  19
TORSDOF 3
ENDMDL
