MODEL 1
REMARK VINA RESULT:      -5.1      0.000      0.000
REMARK SMILES NCCc1c[nH]c2c(F)cccc12
REMARK SMILES IDX 3 1 4 4 11 5 12 6 10 7 13 9 8 11 7 13 9 14 6 15 5 16 2 19
REMARK SMILES IDX 1 22
REMARK H PARENT 3 2 3 3 11 8 12 10 10 12 6 17 5 18 2 20 2 21 1 23 1 24
REMARK Flexibility Score: inf
ROOT
ATOM      1  C   UNL     1      -2.586   2.848  15.897  1.00  0.00    -0.013 C 
ATOM      2  H   UNL     1      -3.559   2.590  16.333  1.00  0.00     0.033 H 
ATOM      3  H   UNL     1      -1.839   2.309  16.493  1.00  0.00     0.033 H 
ENDROOT
BRANCH   1   4
ATOM      4  C   UNL     1      -2.378   4.325  16.037  1.00  0.00    -0.021 A 
ATOM      5  C   UNL     1      -5.513   6.533  16.088  1.00  0.00    -0.059 A 
ATOM      6  C   UNL     1      -4.804   5.326  16.014  1.00  0.00    -0.052 A 
ATOM      7  C   UNL     1      -4.838   7.743  16.227  1.00  0.00    -0.024 A 
ATOM      8  H   UNL     1      -6.599   6.522  16.035  1.00  0.00     0.062 H 
ATOM      9  C   UNL     1      -3.394   5.336  16.081  1.00  0.00     0.006 A 
ATOM     10  H   UNL     1      -5.342   4.389  15.904  1.00  0.00     0.063 H 
ATOM     11  C   UNL     1      -3.448   7.768  16.294  1.00  0.00     0.147 A 
ATOM     12  H   UNL     1      -5.389   8.677  16.283  1.00  0.00     0.065 H 
ATOM     13  C   UNL     1      -2.748   6.565  16.220  1.00  0.00     0.082 A 
ATOM     14  F   UNL     1      -2.801   8.934  16.427  1.00  0.00    -0.205 F 
ATOM     15  N   UNL     1      -1.399   6.319  16.257  1.00  0.00    -0.359 N 
ATOM     16  C   UNL     1      -1.164   4.974  16.156  1.00  0.00     0.005 A 
ATOM     17  H   UNL     1      -0.691   7.036  16.343  1.00  0.00     0.166 HD
ATOM     18  H   UNL     1      -0.153   4.590  16.161  1.00  0.00     0.082 H 
ENDBRANCH   1   4
BRANCH   1  19
ATOM     19  C   UNL     1      -2.557   2.352  14.444  1.00  0.00    -0.004 C 
ATOM     20  H   UNL     1      -3.294   2.919  13.865  1.00  0.00     0.043 H 
ATOM     21  H   UNL     1      -1.576   2.538  13.993  1.00  0.00     0.043 H 
BRANCH  19  22
ATOM     22  N   UNL     1      -2.879   0.929  14.313  1.00  0.00    -0.330 NA
ATOM     23  H   UNL     1      -2.031   0.373  14.394  1.00  0.00     0.118 HD
ATOM     24  H   UNL     1      -3.491   0.647  15.077  1.00  0.00     0.118 HD
ENDBRANCH  19  22
ENDBRANCH   1  19
TORSDOF 3
ENDMDL
MODEL 2
REMARK VINA RESULT:      -4.8      2.607      4.676
REMARK SMILES NCCc1c[nH]c2c(F)cccc12
REMARK SMILES IDX 3 1 4 4 11 5 12 6 10 7 13 9 8 11 7 13 9 14 6 15 5 16 2 19
REMARK SMILES IDX 1 22
REMARK H PARENT 3 2 3 3 11 8 12 10 10 12 6 17 5 18 2 20 2 21 1 23 1 24
REMARK Flexibility Score: inf
ROOT
ATOM      1  C   UNL     1      -1.433   9.407  16.204  1.00  0.00    -0.013 C 
ATOM      2  H   UNL     1      -2.287  10.020  16.519  1.00  0.00     0.033 H 
ATOM      3  H   UNL     1      -1.223   9.699  15.167  1.00  0.00     0.033 H 
ENDROOT
BRANCH   1   4
ATOM      4  C   UNL     1      -1.837   7.966  16.253  1.00  0.00    -0.021 A 
ATOM      5  C   UNL     1      -5.589   7.196  16.055  1.00  0.00    -0.059 A 
ATOM      6  C   UNL     1      -4.455   8.021  16.083  1.00  0.00    -0.052 A 
ATOM      7  C   UNL     1      -5.460   5.812  16.134  1.00  0.00    -0.024 A 
ATOM      8  H   UNL     1      -6.576   7.643  15.970  1.00  0.00     0.062 H 
ATOM      9  C   UNL     1      -3.171   7.444  16.194  1.00  0.00     0.006 A 
ATOM     10  H   UNL     1      -4.570   9.099  16.022  1.00  0.00     0.063 H 
ATOM     11  C   UNL     1      -4.200   5.230  16.244  1.00  0.00     0.147 A 
ATOM     12  H   UNL     1      -6.338   5.174  16.112  1.00  0.00     0.065 H 
ATOM     13  C   UNL     1      -3.076   6.055  16.272  1.00  0.00     0.082 A 
ATOM     14  F   UNL     1      -4.078   3.898  16.322  1.00  0.00    -0.205 F 
ATOM     15  N   UNL     1      -1.745   5.739  16.376  1.00  0.00    -0.359 N 
ATOM     16  C   UNL     1      -0.989   6.879  16.358  1.00  0.00     0.005 A 
ATOM     17  H   UNL     1      -1.388   4.796  16.458  1.00  0.00     0.166 HD
ATOM     18  H   UNL     1       0.089   6.827  16.437  1.00  0.00     0.082 H 
ENDBRANCH   1   4
BRANCH   1  19
ATOM     19  C   UNL     1      -0.233   9.747  17.099  1.00  0.00    -0.004 C 
ATOM     20  H   UNL     1       0.486   8.922  17.050  1.00  0.00     0.043 H 
ATOM     21  H   UNL     1       0.277  10.646  16.733  1.00  0.00     0.043 H 
BRANCH  19  22
ATOM     22  N   UNL     1      -0.597   9.946  18.504  1.00  0.00    -0.330 NA
ATOM     23  H   UNL     1      -0.310  10.873  18.808  1.00  0.00     0.118 HD
ATOM     24  H   UNL     1      -1.610   9.902  18.601  1.00  0.00     0.118 HD
ENDBRANCH  19  22
ENDBRANCH   1  19
TORSDOF 3
ENDMDL
MODEL 3
REMARK VINA RESULT:      -4.8      3.726      4.542
REMARK SMILES NCCc1c[nH]c2c(F)cccc12
REMARK SMILES IDX 3 1 4 4 11 5 12 6 10 7 13 9 8 11 7 13 9 14 6 15 5 16 2 19
REMARK SMILES IDX 1 22
REMARK H PARENT 3 2 3 3 11 8 12 10 10 12 6 17 5 18 2 20 2 21 1 23 1 24
REMARK Flexibility Score: inf
ROOT
ATOM      1  C   UNL     1      -6.973   4.266  19.013  1.00  0.00    -0.013 C 
ATOM      2  H   UNL     1      -6.616   3.453  19.659  1.00  0.00     0.033 H 
ATOM      3  H   UNL     1      -7.133   3.814  18.026  1.00  0.00     0.033 H 
ENDROOT
BRANCH   1   4
ATOM      4  C   UNL     1      -5.903   5.310  18.926  1.00  0.00    -0.021 A 
ATOM      5  C   UNL     1      -5.360   6.974  15.514  1.00  0.00    -0.059 A 
ATOM      6  C   UNL     1      -5.966   6.094  16.422  1.00  0.00    -0.052 A 
ATOM      7  C   UNL     1      -4.329   7.816  15.923  1.00  0.00    -0.024 A 
ATOM      8  H   UNL     1      -5.700   6.997  14.481  1.00  0.00     0.062 H 
ATOM      9  C   UNL     1      -5.527   6.060  17.764  1.00  0.00     0.006 A 
ATOM     10  H   UNL     1      -6.768   5.441  16.090  1.00  0.00     0.063 H 
ATOM     11  C   UNL     1      -3.886   7.793  17.243  1.00  0.00     0.147 A 
ATOM     12  H   UNL     1      -3.861   8.496  15.218  1.00  0.00     0.065 H 
ATOM     13  C   UNL     1      -4.492   6.916  18.142  1.00  0.00     0.082 A 
ATOM     14  F   UNL     1      -2.893   8.603  17.634  1.00  0.00    -0.205 F 
ATOM     15  N   UNL     1      -4.244   6.699  19.474  1.00  0.00    -0.359 N 
ATOM     16  C   UNL     1      -5.092   5.741  19.959  1.00  0.00     0.005 A 
ATOM     17  H   UNL     1      -3.532   7.180  20.006  1.00  0.00     0.166 HD
ATOM     18  H   UNL     1      -5.039   5.431  20.994  1.00  0.00     0.082 H 
ENDBRANCH   1   4
BRANCH   1  19
ATOM     19  C   UNL     1      -8.304   4.785  19.576  1.00  0.00    -0.004 C 
ATOM     20  H   UNL     1      -8.091   5.473  20.401  1.00  0.00     0.043 H 
ATOM     21  H   UNL     1      -8.851   5.350  18.812  1.00  0.00     0.043 H 
BRANCH  19  22
ATOM     22  N   UNL     1      -9.169   3.720  20.090  1.00  0.00    -0.330 NA
ATOM     23  H   UNL     1      -9.965   4.126  20.578  1.00  0.00     0.118 HD
ATOM     24  H   UNL     1      -9.544   3.181  19.311  1.00  0.00     0.118 HD
ENDBRANCH  19  22
ENDBRANCH   1  19
TORSDOF 3
ENDMDL
