MODEL 1
REMARK VINA RESULT:      -4.4      0.000      0.000
REMARK SMILES NCCc1c[nH]c2c(F)cccc12
REMARK SMILES IDX 3 1 4 4 11 5 12 6 10 7 13 9 8 11 7 13 9 14 6 15 5 16 2 19
REMARK SMILES IDX 1 22
REMARK H PARENT 3 2 3 3 11 8 12 10 10 12 6 17 5 18 2 20 2 21 1 23 1 24
REMARK Flexibility Score: inf
ROOT
ATOM      1  C   UNL     1      -9.671  -9.849 -10.559  1.00  0.00    -0.013 C 
ATOM      2  H   UNL     1      -8.672  -9.911 -11.010  1.00  0.00     0.033 H 
ATOM      3  H   UNL     1     -10.329 -10.441 -11.208  1.00  0.00     0.033 H 
ENDROOT
BRANCH   1   4
ATOM      4  C   UNL     1     -10.108  -8.416 -10.563  1.00  0.00    -0.021 A 
ATOM      5  C   UNL     1      -8.888  -6.227 -13.467  1.00  0.00    -0.059 A 
ATOM      6  C   UNL     1      -9.009  -7.411 -12.724  1.00  0.00    -0.052 A 
ATOM      7  C   UNL     1      -9.521  -5.060 -13.047  1.00  0.00    -0.024 A 
ATOM      8  H   UNL     1      -8.294  -6.224 -14.377  1.00  0.00     0.062 H 
ATOM      9  C   UNL     1      -9.779  -7.420 -11.540  1.00  0.00     0.006 A 
ATOM     10  H   UNL     1      -8.509  -8.314 -13.061  1.00  0.00     0.063 H 
ATOM     11  C   UNL     1     -10.283  -5.055 -11.882  1.00  0.00     0.147 A 
ATOM     12  H   UNL     1      -9.426  -4.145 -13.623  1.00  0.00     0.065 H 
ATOM     13  C   UNL     1     -10.400  -6.235 -11.148  1.00  0.00     0.082 A 
ATOM     14  F   UNL     1     -10.890  -3.931 -11.480  1.00  0.00    -0.205 F 
ATOM     15  N   UNL     1     -11.077  -6.491  -9.982  1.00  0.00    -0.359 N 
ATOM     16  C   UNL     1     -10.915  -7.802  -9.625  1.00  0.00     0.005 A 
ATOM     17  H   UNL     1     -11.610  -5.802  -9.470  1.00  0.00     0.166 HD
ATOM     18  H   UNL     1     -11.374  -8.188  -8.724  1.00  0.00     0.082 H 
ENDBRANCH   1   4
BRANCH   1  19
ATOM     19  C   UNL     1      -9.611 -10.476  -9.158  1.00  0.00    -0.004 C 
ATOM     20  H   UNL     1     -10.016  -9.759  -8.435  1.00  0.00     0.043 H 
ATOM     21  H   UNL     1     -10.237 -11.374  -9.112  1.00  0.00     0.043 H 
BRANCH  19  22
ATOM     22  N   UNL     1      -8.251 -10.822  -8.737  1.00  0.00    -0.330 NA
ATOM     23  H   UNL     1      -8.220 -10.938  -7.727  1.00  0.00     0.118 HD
ATOM     24  H   UNL     1      -7.987 -11.717  -9.145  1.00  0.00     0.118 HD
ENDBRANCH  19  22
ENDBRANCH   1  19
TORSDOF 3
ENDMDL
MODEL 2
REMARK VINA RESULT:      -4.0      2.456      4.794
REMARK SMILES NCCc1c[nH]c2c(F)cccc12
REMARK SMILES IDX 3 1 4 4 11 5 12 6 10 7 13 9 8 11 7 13 9 14 6 15 5 16 2 19
REMARK SMILES IDX 1 22
REMARK H PARENT 3 2 3 3 11 8 12 10 10 12 6 17 5 18 2 20 2 21 1 23 1 24
REMARK Flexibility Score: inf
ROOT
ATOM      1  C   UNL     1      -8.500  -5.880 -14.313  1.00  0.00    -0.013 C 
ATOM      2  H   UNL     1      -9.058  -6.511 -15.018  1.00  0.00     0.033 H 
ATOM      3  H   UNL     1      -7.537  -6.382 -14.161  1.00  0.00     0.033 H 
ENDROOT
BRANCH   1   4
ATOM      4  C   UNL     1      -9.255  -5.827 -13.021  1.00  0.00    -0.021 A 
ATOM      5  C   UNL     1      -9.730  -9.135 -11.139  1.00  0.00    -0.059 A 
ATOM      6  C   UNL     1      -9.279  -8.314 -12.183  1.00  0.00    -0.052 A 
ATOM      7  C   UNL     1     -10.443  -8.596 -10.071  1.00  0.00    -0.024 A 
ATOM      8  H   UNL     1      -9.520 -10.201 -11.166  1.00  0.00     0.062 H 
ATOM      9  C   UNL     1      -9.551  -6.929 -12.152  1.00  0.00     0.006 A 
ATOM     10  H   UNL     1      -8.725  -8.747 -13.010  1.00  0.00     0.063 H 
ATOM     11  C   UNL     1     -10.719  -7.232 -10.029  1.00  0.00     0.147 A 
ATOM     12  H   UNL     1     -10.792  -9.233  -9.264  1.00  0.00     0.065 H 
ATOM     13  C   UNL     1     -10.268  -6.421 -11.069  1.00  0.00     0.082 A 
ATOM     14  F   UNL     1     -11.406  -6.716  -9.001  1.00  0.00    -0.205 F 
ATOM     15  N   UNL     1     -10.407  -5.069 -11.265  1.00  0.00    -0.359 N 
ATOM     16  C   UNL     1      -9.795  -4.699 -12.432  1.00  0.00     0.005 A 
ATOM     17  H   UNL     1     -10.897  -4.450 -10.634  1.00  0.00     0.166 HD
ATOM     18  H   UNL     1      -9.807  -3.668 -12.757  1.00  0.00     0.082 H 
ENDBRANCH   1   4
BRANCH   1  19
ATOM     19  C   UNL     1      -8.280  -4.505 -14.961  1.00  0.00    -0.004 C 
ATOM     20  H   UNL     1      -8.717  -3.738 -14.313  1.00  0.00     0.043 H 
ATOM     21  H   UNL     1      -7.209  -4.288 -15.047  1.00  0.00     0.043 H 
BRANCH  19  22
ATOM     22  N   UNL     1      -8.898  -4.384 -16.284  1.00  0.00    -0.330 NA
ATOM     23  H   UNL     1      -9.770  -3.864 -16.212  1.00  0.00     0.118 HD
ATOM     24  H   UNL     1      -8.285  -3.849 -16.897  1.00  0.00     0.118 HD
ENDBRANCH  19  22
ENDBRANCH   1  19
TORSDOF 3
ENDMDL
MODEL 3
REMARK VINA RESULT:      -3.9      1.596      2.010
REMARK SMILES NCCc1c[nH]c2c(F)cccc12
REMARK SMILES IDX 3 1 4 4 11 5 12 6 10 7 13 9 8 11 7 13 9 14 6 15 5 16 2 19
REMARK SMILES IDX 1 22
REMARK H PARENT 3 2 3 3 11 8 12 10 10 12 6 17 5 18 2 20 2 21 1 23 1 24
REMARK Flexibility Score: inf
ROOT
ATOM      1  C   UNL     1     -10.904  -8.791 -11.124  1.00  0.00    -0.013 C 
ATOM      2  H   UNL     1     -11.019  -9.408 -12.025  1.00  0.00     0.033 H 
ATOM      3  H   UNL     1     -11.905  -8.728 -10.677  1.00  0.00     0.033 H 
ENDROOT
BRANCH   1   4
ATOM      4  C   UNL     1     -10.444  -7.427 -11.534  1.00  0.00    -0.021 A 
ATOM      5  C   UNL     1      -7.965  -7.225 -14.454  1.00  0.00    -0.059 A 
ATOM      6  C   UNL     1      -8.798  -7.872 -13.530  1.00  0.00    -0.052 A 
ATOM      7  C   UNL     1      -7.850  -5.837 -14.454  1.00  0.00    -0.024 A 
ATOM      8  H   UNL     1      -7.404  -7.814 -15.175  1.00  0.00     0.062 H 
ATOM      9  C   UNL     1      -9.528  -7.110 -12.591  1.00  0.00     0.006 A 
ATOM     10  H   UNL     1      -8.878  -8.955 -13.539  1.00  0.00     0.063 H 
ATOM     11  C   UNL     1      -8.563  -5.074 -13.533  1.00  0.00     0.147 A 
ATOM     12  H   UNL     1      -7.204  -5.338 -15.169  1.00  0.00     0.065 H 
ATOM     13  C   UNL     1      -9.391  -5.722 -12.618  1.00  0.00     0.082 A 
ATOM     14  F   UNL     1      -8.450  -3.739 -13.535  1.00  0.00    -0.205 F 
ATOM     15  N   UNL     1     -10.184  -5.211 -11.621  1.00  0.00    -0.359 N 
ATOM     16  C   UNL     1     -10.829  -6.227 -10.968  1.00  0.00     0.005 A 
ATOM     17  H   UNL     1     -10.268  -4.227 -11.408  1.00  0.00     0.166 HD
ATOM     18  H   UNL     1     -11.496  -6.014 -10.143  1.00  0.00     0.082 H 
ENDBRANCH   1   4
BRANCH   1  19
ATOM     19  C   UNL     1      -9.944  -9.509 -10.164  1.00  0.00    -0.004 C 
ATOM     20  H   UNL     1      -9.831 -10.548 -10.492  1.00  0.00     0.043 H 
ATOM     21  H   UNL     1      -8.950  -9.047 -10.197  1.00  0.00     0.043 H 
BRANCH  19  22
ATOM     22  N   UNL     1     -10.416  -9.522  -8.777  1.00  0.00    -0.330 NA
ATOM     23  H   UNL     1     -11.433  -9.531  -8.757  1.00  0.00     0.118 HD
ATOM     24  H   UNL     1     -10.104 -10.378  -8.321  1.00  0.00     0.118 HD
ENDBRANCH  19  22
ENDBRANCH   1  19
TORSDOF 3
ENDMDL
