MODEL 1
REMARK VINA RESULT:      -5.1      0.000      0.000
REMARK SMILES NCCc1c[nH]c2c(F)cccc12
REMARK SMILES IDX 3 1 4 4 11 5 12 6 10 7 13 9 8 11 7 13 9 14 6 15 5 16 2 19
REMARK SMILES IDX 1 22
REMARK H PARENT 3 2 3 3 11 8 12 10 10 12 6 17 5 18 2 20 2 21 1 23 1 24
REMARK Flexibility Score: inf
ROOT
ATOM      1  C   UNL     1     -25.190  10.997  12.959  1.00  0.00    -0.013 C 
ATOM      2  H   UNL     1     -24.832   9.984  12.735  1.00  0.00     0.033 H 
ATOM      3  H   UNL     1     -25.794  10.905  13.871  1.00  0.00     0.033 H 
ENDROOT
BRANCH   1   4
ATOM      4  C   UNL     1     -26.052  11.460  11.824  1.00  0.00    -0.021 A 
ATOM      5  C   UNL     1     -26.366   9.120   8.802  1.00  0.00    -0.059 A 
ATOM      6  C   UNL     1     -25.910   9.515  10.068  1.00  0.00    -0.052 A 
ATOM      7  C   UNL     1     -27.215   9.943   8.067  1.00  0.00    -0.024 A 
ATOM      8  H   UNL     1     -26.051   8.164   8.393  1.00  0.00     0.062 H 
ATOM      9  C   UNL     1     -26.315  10.758  10.603  1.00  0.00     0.006 A 
ATOM     10  H   UNL     1     -25.246   8.865  10.631  1.00  0.00     0.063 H 
ATOM     11  C   UNL     1     -27.622  11.171   8.581  1.00  0.00     0.147 A 
ATOM     12  H   UNL     1     -27.566   9.636   7.086  1.00  0.00     0.065 H 
ATOM     13  C   UNL     1     -27.166  11.558   9.840  1.00  0.00     0.082 A 
ATOM     14  F   UNL     1     -28.438  11.961   7.871  1.00  0.00    -0.205 F 
ATOM     15  N   UNL     1     -27.411  12.700  10.561  1.00  0.00    -0.359 N 
ATOM     16  C   UNL     1     -26.753  12.649  11.759  1.00  0.00     0.005 A 
ATOM     17  H   UNL     1     -27.992  13.463  10.239  1.00  0.00     0.166 HD
ATOM     18  H   UNL     1     -26.823  13.469  12.462  1.00  0.00     0.082 H 
ENDBRANCH   1   4
BRANCH   1  19
ATOM     19  C   UNL     1     -23.973  11.896  13.222  1.00  0.00    -0.004 C 
ATOM     20  H   UNL     1     -23.724  12.429  12.298  1.00  0.00     0.043 H 
ATOM     21  H   UNL     1     -24.210  12.651  13.981  1.00  0.00     0.043 H 
BRANCH  19  22
ATOM     22  N   UNL     1     -22.786  11.151  13.647  1.00  0.00    -0.330 NA
ATOM     23  H   UNL     1     -22.012  11.342  13.013  1.00  0.00     0.118 HD
ATOM     24  H   UNL     1     -22.497  11.469  14.570  1.00  0.00     0.118 HD
ENDBRANCH  19  22
ENDBRANCH   1  19
TORSDOF 3
ENDMDL
MODEL 2
REMARK VINA RESULT:      -4.8      2.813      5.205
REMARK SMILES NCCc1c[nH]c2c(F)cccc12
REMARK SMILES IDX 3 1 4 4 11 5 12 6 10 7 13 9 8 11 7 13 9 14 6 15 5 16 2 19
REMARK SMILES IDX 1 22
REMARK H PARENT 3 2 3 3 11 8 12 10 10 12 6 17 5 18 2 20 2 21 1 23 1 24
REMARK Flexibility Score: inf
ROOT
ATOM      1  C   UNL     1     -27.984  10.511   8.208  1.00  0.00    -0.013 C 
ATOM      2  H   UNL     1     -27.883  11.539   7.838  1.00  0.00     0.033 H 
ATOM      3  H   UNL     1     -28.996  10.443   8.628  1.00  0.00     0.033 H 
ENDROOT
BRANCH   1   4
ATOM      4  C   UNL     1     -26.970  10.290   9.288  1.00  0.00    -0.021 A 
ATOM      5  C   UNL     1     -26.655  13.012  11.970  1.00  0.00    -0.059 A 
ATOM      6  C   UNL     1     -27.178  12.414  10.815  1.00  0.00    -0.052 A 
ATOM      7  C   UNL     1     -25.649  12.384  12.700  1.00  0.00    -0.024 A 
ATOM      8  H   UNL     1     -27.039  13.975  12.297  1.00  0.00     0.062 H 
ATOM      9  C   UNL     1     -26.680  11.164  10.386  1.00  0.00     0.006 A 
ATOM     10  H   UNL     1     -27.961  12.915  10.254  1.00  0.00     0.063 H 
ATOM     11  C   UNL     1     -25.149  11.152  12.289  1.00  0.00     0.147 A 
ATOM     12  H   UNL     1     -25.245  12.849  13.594  1.00  0.00     0.065 H 
ATOM     13  C   UNL     1     -25.672  10.561  11.139  1.00  0.00     0.082 A 
ATOM     14  F   UNL     1     -24.180  10.550  12.992  1.00  0.00    -0.205 F 
ATOM     15  N   UNL     1     -25.357   9.373  10.529  1.00  0.00    -0.359 N 
ATOM     16  C   UNL     1     -26.137   9.195   9.418  1.00  0.00     0.005 A 
ATOM     17  H   UNL     1     -24.647   8.734  10.859  1.00  0.00     0.166 HD
ATOM     18  H   UNL     1     -26.024   8.313   8.802  1.00  0.00     0.082 H 
ENDBRANCH   1   4
BRANCH   1  19
ATOM     19  C   UNL     1     -27.844   9.550   7.018  1.00  0.00    -0.004 C 
ATOM     20  H   UNL     1     -28.214  10.052   6.117  1.00  0.00     0.043 H 
ATOM     21  H   UNL     1     -26.790   9.304   6.844  1.00  0.00     0.043 H 
BRANCH  19  22
ATOM     22  N   UNL     1     -28.601   8.308   7.185  1.00  0.00    -0.330 NA
ATOM     23  H   UNL     1     -28.417   7.682   6.403  1.00  0.00     0.118 HD
ATOM     24  H   UNL     1     -28.286   7.829   8.027  1.00  0.00     0.118 HD
ENDBRANCH  19  22
ENDBRANCH   1  19
TORSDOF 3
ENDMDL
MODEL 3
REMARK VINA RESULT:      -4.7      2.464      4.592
REMARK SMILES NCCc1c[nH]c2c(F)cccc12
REMARK SMILES IDX 3 1 4 4 11 5 12 6 10 7 13 9 8 11 7 13 9 14 6 15 5 16 2 19
REMARK SMILES IDX 1 22
REMARK H PARENT 3 2 3 3 11 8 12 10 10 12 6 17 5 18 2 20 2 21 1 23 1 24
REMARK Flexibility Score: inf
ROOT
ATOM      1  C   UNL     1     -26.931   9.294   8.536  1.00  0.00    -0.013 C 
ATOM      2  H   UNL     1     -26.734   8.512   9.280  1.00  0.00     0.033 H 
ATOM      3  H   UNL     1     -26.027   9.347   7.914  1.00  0.00     0.033 H 
ENDROOT
BRANCH   1   4
ATOM      4  C   UNL     1     -27.132  10.594   9.251  1.00  0.00    -0.021 A 
ATOM      5  C   UNL     1     -25.240  11.083  12.551  1.00  0.00    -0.059 A 
ATOM      6  C   UNL     1     -25.634  10.391  11.397  1.00  0.00    -0.052 A 
ATOM      7  C   UNL     1     -25.725  12.361  12.811  1.00  0.00    -0.024 A 
ATOM      8  H   UNL     1     -24.549  10.614  13.248  1.00  0.00     0.062 H 
ATOM      9  C   UNL     1     -26.532  10.995  10.490  1.00  0.00     0.006 A 
ATOM     10  H   UNL     1     -25.250   9.393  11.207  1.00  0.00     0.063 H 
ATOM     11  C   UNL     1     -26.611  12.969  11.926  1.00  0.00     0.147 A 
ATOM     12  H   UNL     1     -25.419  12.895  13.706  1.00  0.00     0.065 H 
ATOM     13  C   UNL     1     -27.000  12.277  10.780  1.00  0.00     0.082 A 
ATOM     14  F   UNL     1     -27.078  14.200  12.179  1.00  0.00    -0.205 F 
ATOM     15  N   UNL     1     -27.850  12.644   9.767  1.00  0.00    -0.359 N 
ATOM     16  C   UNL     1     -27.931  11.643   8.837  1.00  0.00     0.005 A 
ATOM     17  H   UNL     1     -28.341  13.527   9.727  1.00  0.00     0.166 HD
ATOM     18  H   UNL     1     -28.563  11.751   7.965  1.00  0.00     0.082 H 
ENDBRANCH   1   4
BRANCH   1  19
ATOM     19  C   UNL     1     -28.131   8.862   7.682  1.00  0.00    -0.004 C 
ATOM     20  H   UNL     1     -28.486   9.728   7.112  1.00  0.00     0.043 H 
ATOM     21  H   UNL     1     -27.832   8.096   6.957  1.00  0.00     0.043 H 
BRANCH  19  22
ATOM     22  N   UNL     1     -29.253   8.353   8.475  1.00  0.00    -0.330 NA
ATOM     23  H   UNL     1     -29.314   7.342   8.380  1.00  0.00     0.118 HD
ATOM     24  H   UNL     1     -29.086   8.547   9.461  1.00  0.00     0.118 HD
ENDBRANCH  19  22
ENDBRANCH   1  19
TORSDOF 3
ENDMDL
