./dock_file/liganddock202312151433/7Fluorotryptamine_PROamberH_GPCR5A_AF_selefeatureTOP200_color/7Fluorotryptamine_PROamberH_GPCR5A_AF_selefeatureTOP200_color_out_12.pdbqt
 OpenBabel12152314333D

 24 25  0  0  0  0  0  0  0  0999 V2000
    4.8990   -1.6750    4.5470 C   0  0  0  0  0  0  0  0  0  0  0  0
    5.9920   -1.7460    4.4890 H   0  0  0  0  0  0  0  0  0  0  0  0
    4.5280   -1.9630    3.5560 H   0  0  0  0  0  0  0  0  0  0  0  0
    4.5280   -0.2530    4.8350 C   0  0  0  0  0  0  0  0  0  0  0  0
    5.9170    2.4270    2.4690 C   0  0  0  0  0  0  0  0  0  0  0  0
    5.7240    1.1230    2.9470 C   0  0  0  0  0  0  0  0  0  0  0  0
    5.3280    3.5120    3.1140 C   0  0  0  0  0  0  0  0  0  0  0  0
    6.5320    2.5900    1.5890 H   0  0  0  0  0  0  0  0  0  0  0  0
    4.9260    0.9060    4.0920 C   0  0  0  0  0  0  0  0  0  0  0  0
    6.1900    0.2850    2.4370 H   0  0  0  0  0  0  0  0  0  0  0  0
    4.5390    3.3130    4.2440 C   0  0  0  0  0  0  0  0  0  0  0  0
    5.4780    4.5210    2.7430 H   0  0  0  0  0  0  0  0  0  0  0  0
    4.3500    2.0140    4.7140 C   0  0  0  0  0  0  0  0  0  0  0  0
    3.9740    4.3580    4.8630 F   0  0  0  0  0  0  0  0  0  0  0  0
    3.6340    1.5550    5.7910 N   0  0  0  0  0  0  0  0  0  0  0  0
    3.7270    0.1920    5.8700 C   0  0  0  0  0  0  0  0  0  0  0  0
    3.1210    2.1490    6.4290 H   0  0  0  0  0  0  0  0  0  0  0  0
    3.2290   -0.3490    6.6630 H   0  0  0  0  0  0  0  0  0  0  0  0
    4.4030   -2.6730    5.6040 C   0  0  0  0  0  0  0  0  0  0  0  0
    5.2700   -3.0890    6.1280 H   0  0  0  0  0  0  0  0  0  0  0  0
    3.7840   -2.1650    6.3520 H   0  0  0  0  0  0  0  0  0  0  0  0
    3.6420   -3.7880    5.0350 N   0  0  0  0  0  0  0  0  0  0  0  0
    3.0590   -3.4550    4.2700 H   0  0  0  0  0  0  0  0  0  0  0  0
    4.2860   -4.4720    4.6400 H   0  0  0  0  0  0  0  0  0  0  0  0
  1  4  1  0  0  0  0
  1 19  1  0  0  0  0
  2  1  1  0  0  0  0
  3  1  1  0  0  0  0
  4 16  2  0  0  0  0
  5  6  2  0  0  0  0
  5  7  1  0  0  0  0
  6  9  1  0  0  0  0
  7 11  2  0  0  0  0
  8  5  1  0  0  0  0
  9 13  2  0  0  0  0
  9  4  1  0  0  0  0
 10  6  1  0  0  0  0
 11 13  1  0  0  0  0
 11 14  1  0  0  0  0
 12  7  1  0  0  0  0
 13 15  1  0  0  0  0
 15 16  1  0  0  0  0
 15 17  1  0  0  0  0
 16 18  1  0  0  0  0
 19 20  1  0  0  0  0
 19 21  1  0  0  0  0
 22 19  1  0  0  0  0
 23 22  1  0  0  0  0
 24 22  1  0  0  0  0
M  END
>  <MODEL>
1

>  <REMARK>
 VINA RESULT:      -3.6      0.000      0.000
 SMILES NCCc1c[nH]c2c(F)cccc12
 SMILES IDX 3 1 4 4 11 5 12 6 10 7 13 9 8 11 7 13 9 14 6 15 5 16 2 19
 SMILES IDX 1 22
 H PARENT 3 2 3 3 11 8 12 10 10 12 6 17 5 18 2 20 2 21 1 23 1 24
 Flexibility Score: inf

>  <TORSDO>
F 3

$$$$
./dock_file/liganddock202312151433/7Fluorotryptamine_PROamberH_GPCR5A_AF_selefeatureTOP200_color/7Fluorotryptamine_PROamberH_GPCR5A_AF_selefeatureTOP200_color_out_12.pdbqt
 OpenBabel12152314333D

 24 25  0  0  0  0  0  0  0  0999 V2000
    4.8700   -1.8000    6.0900 C   0  0  0  0  0  0  0  0  0  0  0  0
    5.9430   -1.9440    6.2700 H   0  0  0  0  0  0  0  0  0  0  0  0
    4.5590   -0.9970    6.7700 H   0  0  0  0  0  0  0  0  0  0  0  0
    4.1530   -3.0670    6.4390 C   0  0  0  0  0  0  0  0  0  0  0  0
    0.7090   -2.7270    8.0910 C   0  0  0  0  0  0  0  0  0  0  0  0
    1.9000   -2.2600    7.5170 C   0  0  0  0  0  0  0  0  0  0  0  0
    0.4670   -4.0930    8.2110 C   0  0  0  0  0  0  0  0  0  0  0  0
   -0.0310   -2.0130    8.4460 H   0  0  0  0  0  0  0  0  0  0  0  0
    2.8650   -3.1840    7.0570 C   0  0  0  0  0  0  0  0  0  0  0  0
    2.0780   -1.1920    7.4310 H   0  0  0  0  0  0  0  0  0  0  0  0
    1.4090   -5.0140    7.7620 C   0  0  0  0  0  0  0  0  0  0  0  0
   -0.4550   -4.4520    8.6560 H   0  0  0  0  0  0  0  0  0  0  0  0
    2.5920   -4.5450    7.1910 C   0  0  0  0  0  0  0  0  0  0  0  0
    1.1750   -6.3280    7.8790 F   0  0  0  0  0  0  0  0  0  0  0  0
    3.6650   -5.2320    6.6820 N   0  0  0  0  0  0  0  0  0  0  0  0
    4.6070   -4.3540    6.2190 C   0  0  0  0  0  0  0  0  0  0  0  0
    3.7390   -6.2400    6.6610 H   0  0  0  0  0  0  0  0  0  0  0  0
    5.5310   -4.7140    5.7850 H   0  0  0  0  0  0  0  0  0  0  0  0
    4.6780   -1.3580    4.6320 C   0  0  0  0  0  0  0  0  0  0  0  0
    5.2900   -1.9980    3.9880 H   0  0  0  0  0  0  0  0  0  0  0  0
    3.6340   -1.4900    4.3240 H   0  0  0  0  0  0  0  0  0  0  0  0
    5.0730    0.0320    4.3920 N   0  0  0  0  0  0  0  0  0  0  0  0
    5.3720    0.4630    5.2640 H   0  0  0  0  0  0  0  0  0  0  0  0
    5.8730    0.0540    3.7610 H   0  0  0  0  0  0  0  0  0  0  0  0
  1  2  1  0  0  0  0
  1  4  1  0  0  0  0
  1  3  1  0  0  0  0
  4  9  1  0  0  0  0
  5  7  1  0  0  0  0
  5  8  1  0  0  0  0
  6  5  2  0  0  0  0
  7 12  1  0  0  0  0
  9 13  2  0  0  0  0
  9  6  1  0  0  0  0
 10  6  1  0  0  0  0
 11 14  1  0  0  0  0
 11  7  2  0  0  0  0
 13 11  1  0  0  0  0
 15 13  1  0  0  0  0
 16  4  2  0  0  0  0
 16 15  1  0  0  0  0
 17 15  1  0  0  0  0
 18 16  1  0  0  0  0
 19  1  1  0  0  0  0
 20 19  1  0  0  0  0
 21 19  1  0  0  0  0
 22 19  1  0  0  0  0
 22 23  1  0  0  0  0
 24 22  1  0  0  0  0
M  END
>  <REMARK>
 VINA RESULT:      -3.6      4.345      7.047
 SMILES NCCc1c[nH]c2c(F)cccc12
 SMILES IDX 3 1 4 4 11 5 12 6 10 7 13 9 8 11 7 13 9 14 6 15 5 16 2 19
 SMILES IDX 1 22
 H PARENT 3 2 3 3 11 8 12 10 10 12 6 17 5 18 2 20 2 21 1 23 1 24
 Flexibility Score: inf

>  <TORSDO>
F 3

$$$$
./dock_file/liganddock202312151433/7Fluorotryptamine_PROamberH_GPCR5A_AF_selefeatureTOP200_color/7Fluorotryptamine_PROamberH_GPCR5A_AF_selefeatureTOP200_color_out_12.pdbqt
 OpenBabel12152314333D

 24 25  0  0  0  0  0  0  0  0999 V2000
    0.9800   -3.5230   11.6390 C   0  0  0  0  0  0  0  0  0  0  0  0
   -0.0780   -3.7550   11.8170 H   0  0  0  0  0  0  0  0  0  0  0  0
    1.5320   -4.0030   12.4580 H   0  0  0  0  0  0  0  0  0  0  0  0
    1.1610   -2.0380   11.7070 C   0  0  0  0  0  0  0  0  0  0  0  0
   -1.8440    0.0340   12.8870 C   0  0  0  0  0  0  0  0  0  0  0  0
   -1.1560   -1.1430   12.5570 C   0  0  0  0  0  0  0  0  0  0  0  0
   -1.2170    1.2730   12.7860 C   0  0  0  0  0  0  0  0  0  0  0  0
   -2.8750   -0.0250   13.2240 H   0  0  0  0  0  0  0  0  0  0  0  0
    0.1840   -1.0710   12.1170 C   0  0  0  0  0  0  0  0  0  0  0  0
   -1.6560   -2.1030   12.6380 H   0  0  0  0  0  0  0  0  0  0  0  0
    0.1040    1.3580   12.3530 C   0  0  0  0  0  0  0  0  0  0  0  0
   -1.7510    2.1830   13.0410 H   0  0  0  0  0  0  0  0  0  0  0  0
    0.7830    0.1850   12.0260 C   0  0  0  0  0  0  0  0  0  0  0  0
    0.7050    2.5520   12.2550 F   0  0  0  0  0  0  0  0  0  0  0  0
    2.0670   -0.0020   11.5790 N   0  0  0  0  0  0  0  0  0  0  0  0
    2.3080   -1.3360   11.3910 C   0  0  0  0  0  0  0  0  0  0  0  0
    2.7270    0.7460   11.4120 H   0  0  0  0  0  0  0  0  0  0  0  0
    3.2700   -1.6760   11.0320 H   0  0  0  0  0  0  0  0  0  0  0  0
    1.3940   -4.1390   10.2950 C   0  0  0  0  0  0  0  0  0  0  0  0
    2.4430   -3.8870   10.1010 H   0  0  0  0  0  0  0  0  0  0  0  0
    1.3240   -5.2320   10.3350 H   0  0  0  0  0  0  0  0  0  0  0  0
    0.5980   -3.6520    9.1660 N   0  0  0  0  0  0  0  0  0  0  0  0
   -0.0580   -2.9430    9.4850 H   0  0  0  0  0  0  0  0  0  0  0  0
    1.2100   -3.2040    8.4870 H   0  0  0  0  0  0  0  0  0  0  0  0
  1  4  1  0  0  0  0
  1  2  1  0  0  0  0
  1  3  1  0  0  0  0
  4  9  1  0  0  0  0
  5  8  1  0  0  0  0
  6 10  1  0  0  0  0
  6  5  2  0  0  0  0
  7  5  1  0  0  0  0
  7 12  1  0  0  0  0
  9  6  1  0  0  0  0
 11  7  2  0  0  0  0
 13  9  2  0  0  0  0
 13 11  1  0  0  0  0
 14 11  1  0  0  0  0
 15 13  1  0  0  0  0
 16 15  1  0  0  0  0
 16  4  2  0  0  0  0
 17 15  1  0  0  0  0
 18 16  1  0  0  0  0
 19 21  1  0  0  0  0
 19  1  1  0  0  0  0
 20 19  1  0  0  0  0
 22 23  1  0  0  0  0
 22 19  1  0  0  0  0
 24 22  1  0  0  0  0
M  END
>  <REMARK>
 VINA RESULT:      -3.5      7.852      8.955
 SMILES NCCc1c[nH]c2c(F)cccc12
 SMILES IDX 3 1 4 4 11 5 12 6 10 7 13 9 8 11 7 13 9 14 6 15 5 16 2 19
 SMILES IDX 1 22
 H PARENT 3 2 3 3 11 8 12 10 10 12 6 17 5 18 2 20 2 21 1 23 1 24
 Flexibility Score: inf

>  <TORSDO>
F 3

$$$$
