MODEL 1
REMARK VINA RESULT:      -4.9      0.000      0.000
REMARK SMILES NCCc1c[nH]c2c(F)cccc12
REMARK SMILES IDX 3 1 4 4 11 5 12 6 10 7 13 9 8 11 7 13 9 14 6 15 5 16 2 19
REMARK SMILES IDX 1 22
REMARK H PARENT 3 2 3 3 11 8 12 10 10 12 6 17 5 18 2 20 2 21 1 23 1 24
REMARK Flexibility Score: inf
ROOT
ATOM      1  C   UNL     1     -25.998   6.663  26.890  1.00  0.00    -0.013 C 
ATOM      2  H   UNL     1     -26.796   7.356  26.594  1.00  0.00     0.033 H 
ATOM      3  H   UNL     1     -25.565   7.080  27.808  1.00  0.00     0.033 H 
ENDROOT
BRANCH   1   4
ATOM      4  C   UNL     1     -24.964   6.634  25.807  1.00  0.00    -0.021 A 
ATOM      5  C   UNL     1     -21.650   8.431  26.511  1.00  0.00    -0.059 A 
ATOM      6  C   UNL     1     -22.947   7.985  26.804  1.00  0.00    -0.052 A 
ATOM      7  C   UNL     1     -21.060   8.138  25.284  1.00  0.00    -0.024 A 
ATOM      8  H   UNL     1     -21.102   9.012  27.249  1.00  0.00     0.062 H 
ATOM      9  C   UNL     1     -23.662   7.232  25.847  1.00  0.00     0.006 A 
ATOM     10  H   UNL     1     -23.396   8.222  27.764  1.00  0.00     0.063 H 
ATOM     11  C   UNL     1     -21.754   7.397  24.331  1.00  0.00     0.147 A 
ATOM     12  H   UNL     1     -20.056   8.485  25.059  1.00  0.00     0.065 H 
ATOM     13  C   UNL     1     -23.042   6.956  24.628  1.00  0.00     0.082 A 
ATOM     14  F   UNL     1     -21.185   7.118  23.151  1.00  0.00    -0.205 F 
ATOM     15  N   UNL     1     -23.926   6.225  23.874  1.00  0.00    -0.359 N 
ATOM     16  C   UNL     1     -25.082   6.018  24.576  1.00  0.00     0.005 A 
ATOM     17  H   UNL     1     -23.739   5.896  22.936  1.00  0.00     0.166 HD
ATOM     18  H   UNL     1     -25.901   5.463  24.137  1.00  0.00     0.082 H 
ENDBRANCH   1   4
BRANCH   1  19
ATOM     19  C   UNL     1     -26.630   5.294  27.182  1.00  0.00    -0.004 C 
ATOM     20  H   UNL     1     -27.481   5.437  27.857  1.00  0.00     0.043 H 
ATOM     21  H   UNL     1     -27.016   4.843  26.261  1.00  0.00     0.043 H 
BRANCH  19  22
ATOM     22  N   UNL     1     -25.704   4.354  27.819  1.00  0.00    -0.330 NA
ATOM     23  H   UNL     1     -25.253   3.778  27.110  1.00  0.00     0.118 HD
ATOM     24  H   UNL     1     -24.966   4.872  28.292  1.00  0.00     0.118 HD
ENDBRANCH  19  22
ENDBRANCH   1  19
TORSDOF 3
ENDMDL
MODEL 2
REMARK VINA RESULT:      -4.7      2.439      4.254
REMARK SMILES NCCc1c[nH]c2c(F)cccc12
REMARK SMILES IDX 3 1 4 4 11 5 12 6 10 7 13 9 8 11 7 13 9 14 6 15 5 16 2 19
REMARK SMILES IDX 1 22
REMARK H PARENT 3 2 3 3 11 8 12 10 10 12 6 17 5 18 2 20 2 21 1 23 1 24
REMARK Flexibility Score: inf
ROOT
ATOM      1  C   UNL     1     -21.262   8.257  26.170  1.00  0.00    -0.013 C 
ATOM      2  H   UNL     1     -20.250   8.552  25.863  1.00  0.00     0.033 H 
ATOM      3  H   UNL     1     -21.127   7.468  26.921  1.00  0.00     0.033 H 
ENDROOT
BRANCH   1   4
ATOM      4  C   UNL     1     -21.981   7.706  24.978  1.00  0.00    -0.021 A 
ATOM      5  C   UNL     1     -25.457   6.201  25.577  1.00  0.00    -0.059 A 
ATOM      6  C   UNL     1     -24.257   6.826  25.945  1.00  0.00    -0.052 A 
ATOM      7  C   UNL     1     -25.696   5.850  24.251  1.00  0.00    -0.024 A 
ATOM      8  H   UNL     1     -26.206   5.990  26.337  1.00  0.00     0.062 H 
ATOM      9  C   UNL     1     -23.281   7.101  24.962  1.00  0.00     0.006 A 
ATOM     10  H   UNL     1     -24.082   7.093  26.983  1.00  0.00     0.063 H 
ATOM     11  C   UNL     1     -24.743   6.115  23.272  1.00  0.00     0.147 A 
ATOM     12  H   UNL     1     -26.626   5.366  23.969  1.00  0.00     0.065 H 
ATOM     13  C   UNL     1     -23.551   6.736  23.643  1.00  0.00     0.082 A 
ATOM     14  F   UNL     1     -24.974   5.775  21.997  1.00  0.00    -0.205 F 
ATOM     15  N   UNL     1     -22.466   7.099  22.885  1.00  0.00    -0.359 N 
ATOM     16  C   UNL     1     -21.518   7.690  23.676  1.00  0.00     0.005 A 
ATOM     17  H   UNL     1     -22.388   6.942  21.889  1.00  0.00     0.166 HD
ATOM     18  H   UNL     1     -20.586   8.038  23.252  1.00  0.00     0.082 H 
ENDBRANCH   1   4
BRANCH   1  19
ATOM     19  C   UNL     1     -21.951   9.474  26.804  1.00  0.00    -0.004 C 
ATOM     20  H   UNL     1     -22.275  10.150  26.005  1.00  0.00     0.043 H 
ATOM     21  H   UNL     1     -22.847   9.166  27.354  1.00  0.00     0.043 H 
BRANCH  19  22
ATOM     22  N   UNL     1     -21.077  10.230  27.705  1.00  0.00    -0.330 NA
ATOM     23  H   UNL     1     -20.238   9.690  27.907  1.00  0.00     0.118 HD
ATOM     24  H   UNL     1     -20.774  11.087  27.245  1.00  0.00     0.118 HD
ENDBRANCH  19  22
ENDBRANCH   1  19
TORSDOF 3
ENDMDL
MODEL 3
REMARK VINA RESULT:      -4.6      2.795      3.350
REMARK SMILES NCCc1c[nH]c2c(F)cccc12
REMARK SMILES IDX 3 1 4 4 11 5 12 6 10 7 13 9 8 11 7 13 9 14 6 15 5 16 2 19
REMARK SMILES IDX 1 22
REMARK H PARENT 3 2 3 3 11 8 12 10 10 12 6 17 5 18 2 20 2 21 1 23 1 24
REMARK Flexibility Score: inf
ROOT
ATOM      1  C   UNL     1     -24.717   7.454  23.609  1.00  0.00    -0.013 C 
ATOM      2  H   UNL     1     -25.212   8.415  23.798  1.00  0.00     0.033 H 
ATOM      3  H   UNL     1     -25.250   6.718  24.225  1.00  0.00     0.033 H 
ENDROOT
BRANCH   1   4
ATOM      4  C   UNL     1     -23.292   7.556  24.059  1.00  0.00    -0.021 A 
ATOM      5  C   UNL     1     -22.677   8.714  27.663  1.00  0.00    -0.059 A 
ATOM      6  C   UNL     1     -23.455   8.374  26.547  1.00  0.00    -0.052 A 
ATOM      7  C   UNL     1     -21.287   8.649  27.603  1.00  0.00    -0.024 A 
ATOM      8  H   UNL     1     -23.164   9.032  28.581  1.00  0.00     0.062 H 
ATOM      9  C   UNL     1     -22.826   7.962  25.352  1.00  0.00     0.006 A 
ATOM     10  H   UNL     1     -24.538   8.431  26.606  1.00  0.00     0.063 H 
ATOM     11  C   UNL     1     -20.653   8.245  26.431  1.00  0.00     0.147 A 
ATOM     12  H   UNL     1     -20.686   8.913  28.467  1.00  0.00     0.065 H 
ATOM     13  C   UNL     1     -21.432   7.908  25.326  1.00  0.00     0.082 A 
ATOM     14  F   UNL     1     -19.316   8.184  26.376  1.00  0.00    -0.205 F 
ATOM     15  N   UNL     1     -21.061   7.490  24.072  1.00  0.00    -0.359 N 
ATOM     16  C   UNL     1     -22.171   7.267  23.304  1.00  0.00     0.005 A 
ATOM     17  H   UNL     1     -20.103   7.371  23.772  1.00  0.00     0.166 HD
ATOM     18  H   UNL     1     -22.074   6.936  22.278  1.00  0.00     0.082 H 
ENDBRANCH   1   4
BRANCH   1  19
ATOM     19  C   UNL     1     -24.876   7.109  22.121  1.00  0.00    -0.004 C 
ATOM     20  H   UNL     1     -25.662   7.743  21.696  1.00  0.00     0.043 H 
ATOM     21  H   UNL     1     -23.951   7.327  21.575  1.00  0.00     0.043 H 
BRANCH  19  22
ATOM     22  N   UNL     1     -25.248   5.712  21.888  1.00  0.00    -0.330 NA
ATOM     23  H   UNL     1     -25.537   5.587  20.920  1.00  0.00     0.118 HD
ATOM     24  H   UNL     1     -24.436   5.115  22.033  1.00  0.00     0.118 HD
ENDBRANCH  19  22
ENDBRANCH   1  19
TORSDOF 3
ENDMDL
