./dock_file/liganddock202312151433/7Fluorotryptamine_PROamberH_GPCR5A_AF_selefeatureTOP200_color/7Fluorotryptamine_PROamberH_GPCR5A_AF_selefeatureTOP200_color_out_5.pdbqt
 OpenBabel12152314333D

 24 25  0  0  0  0  0  0  0  0999 V2000
    2.2500   -3.4370  -23.8950 C   0  0  0  0  0  0  0  0  0  0  0  0
    2.1990   -2.7050  -23.0780 H   0  0  0  0  0  0  0  0  0  0  0  0
    1.3520   -3.2680  -24.5030 H   0  0  0  0  0  0  0  0  0  0  0  0
    2.2130   -4.8130  -23.3050 C   0  0  0  0  0  0  0  0  0  0  0  0
    1.8700   -7.7510  -25.7460 C   0  0  0  0  0  0  0  0  0  0  0  0
    1.9730   -6.4010  -25.3810 C   0  0  0  0  0  0  0  0  0  0  0  0
    1.8820   -8.7500  -24.7760 C   0  0  0  0  0  0  0  0  0  0  0  0
    1.7770   -8.0170  -26.7960 H   0  0  0  0  0  0  0  0  0  0  0  0
    2.0920   -6.0510  -24.0180 C   0  0  0  0  0  0  0  0  0  0  0  0
    1.9610   -5.6310  -26.1460 H   0  0  0  0  0  0  0  0  0  0  0  0
    1.9980   -8.4190  -23.4290 C   0  0  0  0  0  0  0  0  0  0  0  0
    1.8010   -9.7950  -25.0610 H   0  0  0  0  0  0  0  0  0  0  0  0
    2.1010   -7.0760  -23.0720 C   0  0  0  0  0  0  0  0  0  0  0  0
    2.0080   -9.3830  -22.4980 F   0  0  0  0  0  0  0  0  0  0  0  0
    2.2200   -6.4930  -21.8350 N   0  0  0  0  0  0  0  0  0  0  0  0
    2.2960   -5.1330  -21.9630 C   0  0  0  0  0  0  0  0  0  0  0  0
    2.2420   -7.0050  -20.9630 H   0  0  0  0  0  0  0  0  0  0  0  0
    2.3870   -4.5010  -21.0890 H   0  0  0  0  0  0  0  0  0  0  0  0
    3.5090   -3.1510  -24.7260 C   0  0  0  0  0  0  0  0  0  0  0  0
    4.3860   -3.2410  -24.0760 H   0  0  0  0  0  0  0  0  0  0  0  0
    3.6180   -3.8920  -25.5260 H   0  0  0  0  0  0  0  0  0  0  0  0
    3.5210   -1.8100  -25.3140 N   0  0  0  0  0  0  0  0  0  0  0  0
    2.6080   -1.5970  -25.7110 H   0  0  0  0  0  0  0  0  0  0  0  0
    3.6940   -1.1200  -24.5850 H   0  0  0  0  0  0  0  0  0  0  0  0
  1  4  1  0  0  0  0
  1  2  1  0  0  0  0
  3  1  1  0  0  0  0
  4 16  2  0  0  0  0
  5  6  2  0  0  0  0
  5  7  1  0  0  0  0
  6  9  1  0  0  0  0
  7 11  2  0  0  0  0
  8  5  1  0  0  0  0
  9  4  1  0  0  0  0
  9 13  2  0  0  0  0
 10  6  1  0  0  0  0
 11 13  1  0  0  0  0
 11 14  1  0  0  0  0
 12  7  1  0  0  0  0
 13 15  1  0  0  0  0
 15 17  1  0  0  0  0
 16 15  1  0  0  0  0
 16 18  1  0  0  0  0
 19 20  1  0  0  0  0
 19  1  1  0  0  0  0
 21 19  1  0  0  0  0
 22 19  1  0  0  0  0
 22 24  1  0  0  0  0
 23 22  1  0  0  0  0
M  END
>  <MODEL>
1

>  <REMARK>
 VINA RESULT:      -5.1      0.000      0.000
 SMILES NCCc1c[nH]c2c(F)cccc12
 SMILES IDX 3 1 4 4 11 5 12 6 10 7 13 9 8 11 7 13 9 14 6 15 5 16 2 19
 SMILES IDX 1 22
 H PARENT 3 2 3 3 11 8 12 10 10 12 6 17 5 18 2 20 2 21 1 23 1 24
 Flexibility Score: inf

>  <TORSDO>
F 3

$$$$
./dock_file/liganddock202312151433/7Fluorotryptamine_PROamberH_GPCR5A_AF_selefeatureTOP200_color/7Fluorotryptamine_PROamberH_GPCR5A_AF_selefeatureTOP200_color_out_5.pdbqt
 OpenBabel12152314333D

 24 25  0  0  0  0  0  0  0  0999 V2000
    3.8100   -2.8160  -23.7390 C   0  0  0  0  0  0  0  0  0  0  0  0
    4.6960   -2.9190  -24.3780 H   0  0  0  0  0  0  0  0  0  0  0  0
    4.1770   -2.8790  -22.7070 H   0  0  0  0  0  0  0  0  0  0  0  0
    2.8840   -3.9590  -24.0200 C   0  0  0  0  0  0  0  0  0  0  0  0
    3.4870   -5.9440  -27.2450 C   0  0  0  0  0  0  0  0  0  0  0  0
    3.7370   -4.9390  -26.3000 C   0  0  0  0  0  0  0  0  0  0  0  0
    2.4380   -6.8410  -27.0640 C   0  0  0  0  0  0  0  0  0  0  0  0
    4.1190   -6.0200  -28.1270 H   0  0  0  0  0  0  0  0  0  0  0  0
    2.9190   -4.8350  -25.1540 C   0  0  0  0  0  0  0  0  0  0  0  0
    4.5580   -4.2440  -26.4540 H   0  0  0  0  0  0  0  0  0  0  0  0
    1.6230   -6.7500  -25.9390 C   0  0  0  0  0  0  0  0  0  0  0  0
    2.2450   -7.6180  -27.7970 H   0  0  0  0  0  0  0  0  0  0  0  0
    1.8760   -5.7490  -25.0030 C   0  0  0  0  0  0  0  0  0  0  0  0
    0.6130   -7.6140  -25.7680 F   0  0  0  0  0  0  0  0  0  0  0  0
    1.2300   -5.4460  -23.8300 N   0  0  0  0  0  0  0  0  0  0  0  0
    1.8320   -4.3760  -23.2260 C   0  0  0  0  0  0  0  0  0  0  0  0
    0.4250   -5.9460  -23.4780 H   0  0  0  0  0  0  0  0  0  0  0  0
    1.4540   -3.9880  -22.2890 H   0  0  0  0  0  0  0  0  0  0  0  0
    3.1870   -1.4350  -23.9910 C   0  0  0  0  0  0  0  0  0  0  0  0
    2.1060   -1.5030  -23.8300 H   0  0  0  0  0  0  0  0  0  0  0  0
    3.5770   -0.7000  -23.2770 H   0  0  0  0  0  0  0  0  0  0  0  0
    3.4090   -0.9400  -25.3520 N   0  0  0  0  0  0  0  0  0  0  0  0
    3.8360   -0.0160  -25.3190 H   0  0  0  0  0  0  0  0  0  0  0  0
    4.0650   -1.5520  -25.8330 H   0  0  0  0  0  0  0  0  0  0  0  0
  1  3  1  0  0  0  0
  2  1  1  0  0  0  0
  4  1  1  0  0  0  0
  4 16  2  0  0  0  0
  5  7  2  0  0  0  0
  5  6  1  0  0  0  0
  6  9  2  0  0  0  0
  7 11  1  0  0  0  0
  8  5  1  0  0  0  0
  9 13  1  0  0  0  0
  9  4  1  0  0  0  0
 10  6  1  0  0  0  0
 11 14  1  0  0  0  0
 11 13  2  0  0  0  0
 12  7  1  0  0  0  0
 13 15  1  0  0  0  0
 15 17  1  0  0  0  0
 15 16  1  0  0  0  0
 16 18  1  0  0  0  0
 19 20  1  0  0  0  0
 19  1  1  0  0  0  0
 19 21  1  0  0  0  0
 22 23  1  0  0  0  0
 22 19  1  0  0  0  0
 24 22  1  0  0  0  0
M  END
>  <REMARK>
 VINA RESULT:      -4.7      1.964      2.398
 SMILES NCCc1c[nH]c2c(F)cccc12
 SMILES IDX 3 1 4 4 11 5 12 6 10 7 13 9 8 11 7 13 9 14 6 15 5 16 2 19
 SMILES IDX 1 22
 H PARENT 3 2 3 3 11 8 12 10 10 12 6 17 5 18 2 20 2 21 1 23 1 24
 Flexibility Score: inf

>  <TORSDO>
F 3

$$$$
./dock_file/liganddock202312151433/7Fluorotryptamine_PROamberH_GPCR5A_AF_selefeatureTOP200_color/7Fluorotryptamine_PROamberH_GPCR5A_AF_selefeatureTOP200_color_out_5.pdbqt
 OpenBabel12152314333D

 24 25  0  0  0  0  0  0  0  0999 V2000
    2.1830   -3.7410  -24.0860 C   0  0  0  0  0  0  0  0  0  0  0  0
    1.8220   -3.7280  -23.0500 H   0  0  0  0  0  0  0  0  0  0  0  0
    1.3990   -3.2550  -24.6810 H   0  0  0  0  0  0  0  0  0  0  0  0
    2.3380   -5.1670  -24.5180 C   0  0  0  0  0  0  0  0  0  0  0  0
    1.8490   -7.8670  -21.8390 C   0  0  0  0  0  0  0  0  0  0  0  0
    1.9060   -6.5560  -22.3340 C   0  0  0  0  0  0  0  0  0  0  0  0
    2.0810   -8.9520  -22.6800 C   0  0  0  0  0  0  0  0  0  0  0  0
    1.6220   -8.0350  -20.7890 H   0  0  0  0  0  0  0  0  0  0  0  0
    2.2010   -6.3340  -23.6970 C   0  0  0  0  0  0  0  0  0  0  0  0
    1.7240   -5.7180  -21.6670 H   0  0  0  0  0  0  0  0  0  0  0  0
    2.3730   -8.7480  -24.0250 C   0  0  0  0  0  0  0  0  0  0  0  0
    2.0370   -9.9660  -22.2940 H   0  0  0  0  0  0  0  0  0  0  0  0
    2.4280   -7.4430  -24.5120 C   0  0  0  0  0  0  0  0  0  0  0  0
    2.5970   -9.7940  -24.8320 F   0  0  0  0  0  0  0  0  0  0  0  0
    2.6950   -6.9770  -25.7750 N   0  0  0  0  0  0  0  0  0  0  0  0
    2.6360   -5.6100  -25.7930 C   0  0  0  0  0  0  0  0  0  0  0  0
    2.9070   -7.5680  -26.5670 H   0  0  0  0  0  0  0  0  0  0  0  0
    2.8260   -5.0620  -26.7060 H   0  0  0  0  0  0  0  0  0  0  0  0
    3.4810   -2.9240  -24.1600 C   0  0  0  0  0  0  0  0  0  0  0  0
    3.6090   -2.3840  -23.2150 H   0  0  0  0  0  0  0  0  0  0  0  0
    4.3460   -3.5870  -24.2760 H   0  0  0  0  0  0  0  0  0  0  0  0
    3.4850   -1.9420  -25.2460 N   0  0  0  0  0  0  0  0  0  0  0  0
    2.7320   -2.1440  -25.8990 H   0  0  0  0  0  0  0  0  0  0  0  0
    3.3060   -1.0140  -24.8650 H   0  0  0  0  0  0  0  0  0  0  0  0
  1  2  1  0  0  0  0
  3  1  1  0  0  0  0
  4  1  1  0  0  0  0
  4  9  1  0  0  0  0
  5  8  1  0  0  0  0
  6  5  1  0  0  0  0
  6 10  1  0  0  0  0
  7 12  1  0  0  0  0
  7  5  2  0  0  0  0
  9  6  2  0  0  0  0
 11  7  1  0  0  0  0
 13 11  2  0  0  0  0
 13  9  1  0  0  0  0
 14 11  1  0  0  0  0
 15 13  1  0  0  0  0
 16 15  1  0  0  0  0
 16  4  2  0  0  0  0
 17 15  1  0  0  0  0
 18 16  1  0  0  0  0
 19  1  1  0  0  0  0
 19 20  1  0  0  0  0
 21 19  1  0  0  0  0
 22 24  1  0  0  0  0
 22 19  1  0  0  0  0
 23 22  1  0  0  0  0
M  END
>  <REMARK>
 VINA RESULT:      -4.7      1.570      2.342
 SMILES NCCc1c[nH]c2c(F)cccc12
 SMILES IDX 3 1 4 4 11 5 12 6 10 7 13 9 8 11 7 13 9 14 6 15 5 16 2 19
 SMILES IDX 1 22
 H PARENT 3 2 3 3 11 8 12 10 10 12 6 17 5 18 2 20 2 21 1 23 1 24
 Flexibility Score: inf

>  <TORSDO>
F 3

$$$$
