./dock_file/liganddock202312151433/7Fluorotryptamine_PROamberH_GPCR5A_AF_selefeatureTOP200_color/7Fluorotryptamine_PROamberH_GPCR5A_AF_selefeatureTOP200_color_out_10.pdbqt
 OpenBabel12152314333D

 24 25  0  0  0  0  0  0  0  0999 V2000
  -25.1900   10.9970   12.9590 C   0  0  0  0  0  0  0  0  0  0  0  0
  -24.8320    9.9840   12.7350 H   0  0  0  0  0  0  0  0  0  0  0  0
  -25.7940   10.9050   13.8710 H   0  0  0  0  0  0  0  0  0  0  0  0
  -26.0520   11.4600   11.8240 C   0  0  0  0  0  0  0  0  0  0  0  0
  -26.3660    9.1200    8.8020 C   0  0  0  0  0  0  0  0  0  0  0  0
  -25.9100    9.5150   10.0680 C   0  0  0  0  0  0  0  0  0  0  0  0
  -27.2150    9.9430    8.0670 C   0  0  0  0  0  0  0  0  0  0  0  0
  -26.0510    8.1640    8.3930 H   0  0  0  0  0  0  0  0  0  0  0  0
  -26.3150   10.7580   10.6030 C   0  0  0  0  0  0  0  0  0  0  0  0
  -25.2460    8.8650   10.6310 H   0  0  0  0  0  0  0  0  0  0  0  0
  -27.6220   11.1710    8.5810 C   0  0  0  0  0  0  0  0  0  0  0  0
  -27.5660    9.6360    7.0860 H   0  0  0  0  0  0  0  0  0  0  0  0
  -27.1660   11.5580    9.8400 C   0  0  0  0  0  0  0  0  0  0  0  0
  -28.4380   11.9610    7.8710 F   0  0  0  0  0  0  0  0  0  0  0  0
  -27.4110   12.7000   10.5610 N   0  0  0  0  0  0  0  0  0  0  0  0
  -26.7530   12.6490   11.7590 C   0  0  0  0  0  0  0  0  0  0  0  0
  -27.9920   13.4630   10.2390 H   0  0  0  0  0  0  0  0  0  0  0  0
  -26.8230   13.4690   12.4620 H   0  0  0  0  0  0  0  0  0  0  0  0
  -23.9730   11.8960   13.2220 C   0  0  0  0  0  0  0  0  0  0  0  0
  -23.7240   12.4290   12.2980 H   0  0  0  0  0  0  0  0  0  0  0  0
  -24.2100   12.6510   13.9810 H   0  0  0  0  0  0  0  0  0  0  0  0
  -22.7860   11.1510   13.6470 N   0  0  0  0  0  0  0  0  0  0  0  0
  -22.0120   11.3420   13.0130 H   0  0  0  0  0  0  0  0  0  0  0  0
  -22.4970   11.4690   14.5700 H   0  0  0  0  0  0  0  0  0  0  0  0
  1 19  1  0  0  0  0
  1  3  1  0  0  0  0
  2  1  1  0  0  0  0
  4  1  1  0  0  0  0
  5  6  2  0  0  0  0
  6  9  1  0  0  0  0
  6 10  1  0  0  0  0
  7 11  2  0  0  0  0
  7  5  1  0  0  0  0
  8  5  1  0  0  0  0
  9  4  1  0  0  0  0
 11 13  1  0  0  0  0
 12  7  1  0  0  0  0
 13 15  1  0  0  0  0
 13  9  2  0  0  0  0
 14 11  1  0  0  0  0
 15 16  1  0  0  0  0
 16  4  2  0  0  0  0
 16 18  1  0  0  0  0
 17 15  1  0  0  0  0
 19 22  1  0  0  0  0
 19 21  1  0  0  0  0
 20 19  1  0  0  0  0
 22 24  1  0  0  0  0
 23 22  1  0  0  0  0
M  END
>  <MODEL>
1

>  <REMARK>
 VINA RESULT:      -5.1      0.000      0.000
 SMILES NCCc1c[nH]c2c(F)cccc12
 SMILES IDX 3 1 4 4 11 5 12 6 10 7 13 9 8 11 7 13 9 14 6 15 5 16 2 19
 SMILES IDX 1 22
 H PARENT 3 2 3 3 11 8 12 10 10 12 6 17 5 18 2 20 2 21 1 23 1 24
 Flexibility Score: inf

>  <TORSDO>
F 3

$$$$
./dock_file/liganddock202312151433/7Fluorotryptamine_PROamberH_GPCR5A_AF_selefeatureTOP200_color/7Fluorotryptamine_PROamberH_GPCR5A_AF_selefeatureTOP200_color_out_10.pdbqt
 OpenBabel12152314333D

 24 25  0  0  0  0  0  0  0  0999 V2000
  -27.9840   10.5110    8.2080 C   0  0  0  0  0  0  0  0  0  0  0  0
  -27.8830   11.5390    7.8380 H   0  0  0  0  0  0  0  0  0  0  0  0
  -28.9960   10.4430    8.6280 H   0  0  0  0  0  0  0  0  0  0  0  0
  -26.9700   10.2900    9.2880 C   0  0  0  0  0  0  0  0  0  0  0  0
  -26.6550   13.0120   11.9700 C   0  0  0  0  0  0  0  0  0  0  0  0
  -27.1780   12.4140   10.8150 C   0  0  0  0  0  0  0  0  0  0  0  0
  -25.6490   12.3840   12.7000 C   0  0  0  0  0  0  0  0  0  0  0  0
  -27.0390   13.9750   12.2970 H   0  0  0  0  0  0  0  0  0  0  0  0
  -26.6800   11.1640   10.3860 C   0  0  0  0  0  0  0  0  0  0  0  0
  -27.9610   12.9150   10.2540 H   0  0  0  0  0  0  0  0  0  0  0  0
  -25.1490   11.1520   12.2890 C   0  0  0  0  0  0  0  0  0  0  0  0
  -25.2450   12.8490   13.5940 H   0  0  0  0  0  0  0  0  0  0  0  0
  -25.6720   10.5610   11.1390 C   0  0  0  0  0  0  0  0  0  0  0  0
  -24.1800   10.5500   12.9920 F   0  0  0  0  0  0  0  0  0  0  0  0
  -25.3570    9.3730   10.5290 N   0  0  0  0  0  0  0  0  0  0  0  0
  -26.1370    9.1950    9.4180 C   0  0  0  0  0  0  0  0  0  0  0  0
  -24.6470    8.7340   10.8590 H   0  0  0  0  0  0  0  0  0  0  0  0
  -26.0240    8.3130    8.8020 H   0  0  0  0  0  0  0  0  0  0  0  0
  -27.8440    9.5500    7.0180 C   0  0  0  0  0  0  0  0  0  0  0  0
  -28.2140   10.0520    6.1170 H   0  0  0  0  0  0  0  0  0  0  0  0
  -26.7900    9.3040    6.8440 H   0  0  0  0  0  0  0  0  0  0  0  0
  -28.6010    8.3080    7.1850 N   0  0  0  0  0  0  0  0  0  0  0  0
  -28.4170    7.6820    6.4030 H   0  0  0  0  0  0  0  0  0  0  0  0
  -28.2860    7.8290    8.0270 H   0  0  0  0  0  0  0  0  0  0  0  0
  1  3  1  0  0  0  0
  1  4  1  0  0  0  0
  2  1  1  0  0  0  0
  4 16  2  0  0  0  0
  4  9  1  0  0  0  0
  5  8  1  0  0  0  0
  5  7  2  0  0  0  0
  6  5  1  0  0  0  0
  7 12  1  0  0  0  0
  9  6  2  0  0  0  0
  9 13  1  0  0  0  0
 10  6  1  0  0  0  0
 11  7  1  0  0  0  0
 11 14  1  0  0  0  0
 13 11  2  0  0  0  0
 15 17  1  0  0  0  0
 15 13  1  0  0  0  0
 16 15  1  0  0  0  0
 18 16  1  0  0  0  0
 19 22  1  0  0  0  0
 19  1  1  0  0  0  0
 20 19  1  0  0  0  0
 21 19  1  0  0  0  0
 22 24  1  0  0  0  0
 23 22  1  0  0  0  0
M  END
>  <REMARK>
 VINA RESULT:      -4.8      2.813      5.205
 SMILES NCCc1c[nH]c2c(F)cccc12
 SMILES IDX 3 1 4 4 11 5 12 6 10 7 13 9 8 11 7 13 9 14 6 15 5 16 2 19
 SMILES IDX 1 22
 H PARENT 3 2 3 3 11 8 12 10 10 12 6 17 5 18 2 20 2 21 1 23 1 24
 Flexibility Score: inf

>  <TORSDO>
F 3

$$$$
./dock_file/liganddock202312151433/7Fluorotryptamine_PROamberH_GPCR5A_AF_selefeatureTOP200_color/7Fluorotryptamine_PROamberH_GPCR5A_AF_selefeatureTOP200_color_out_10.pdbqt
 OpenBabel12152314333D

 24 25  0  0  0  0  0  0  0  0999 V2000
  -26.9310    9.2940    8.5360 C   0  0  0  0  0  0  0  0  0  0  0  0
  -26.7340    8.5120    9.2800 H   0  0  0  0  0  0  0  0  0  0  0  0
  -26.0270    9.3470    7.9140 H   0  0  0  0  0  0  0  0  0  0  0  0
  -27.1320   10.5940    9.2510 C   0  0  0  0  0  0  0  0  0  0  0  0
  -25.2400   11.0830   12.5510 C   0  0  0  0  0  0  0  0  0  0  0  0
  -25.6340   10.3910   11.3970 C   0  0  0  0  0  0  0  0  0  0  0  0
  -25.7250   12.3610   12.8110 C   0  0  0  0  0  0  0  0  0  0  0  0
  -24.5490   10.6140   13.2480 H   0  0  0  0  0  0  0  0  0  0  0  0
  -26.5320   10.9950   10.4900 C   0  0  0  0  0  0  0  0  0  0  0  0
  -25.2500    9.3930   11.2070 H   0  0  0  0  0  0  0  0  0  0  0  0
  -26.6110   12.9690   11.9260 C   0  0  0  0  0  0  0  0  0  0  0  0
  -25.4190   12.8950   13.7060 H   0  0  0  0  0  0  0  0  0  0  0  0
  -27.0000   12.2770   10.7800 C   0  0  0  0  0  0  0  0  0  0  0  0
  -27.0780   14.2000   12.1790 F   0  0  0  0  0  0  0  0  0  0  0  0
  -27.8500   12.6440    9.7670 N   0  0  0  0  0  0  0  0  0  0  0  0
  -27.9310   11.6430    8.8370 C   0  0  0  0  0  0  0  0  0  0  0  0
  -28.3410   13.5270    9.7270 H   0  0  0  0  0  0  0  0  0  0  0  0
  -28.5630   11.7510    7.9650 H   0  0  0  0  0  0  0  0  0  0  0  0
  -28.1310    8.8620    7.6820 C   0  0  0  0  0  0  0  0  0  0  0  0
  -28.4860    9.7280    7.1120 H   0  0  0  0  0  0  0  0  0  0  0  0
  -27.8320    8.0960    6.9570 H   0  0  0  0  0  0  0  0  0  0  0  0
  -29.2530    8.3530    8.4750 N   0  0  0  0  0  0  0  0  0  0  0  0
  -29.3140    7.3420    8.3800 H   0  0  0  0  0  0  0  0  0  0  0  0
  -29.0860    8.5470    9.4610 H   0  0  0  0  0  0  0  0  0  0  0  0
  1  4  1  0  0  0  0
  1  2  1  0  0  0  0
  3  1  1  0  0  0  0
  4  9  1  0  0  0  0
  5  7  1  0  0  0  0
  5  8  1  0  0  0  0
  6  5  2  0  0  0  0
  7 12  1  0  0  0  0
  9 13  2  0  0  0  0
  9  6  1  0  0  0  0
 10  6  1  0  0  0  0
 11 14  1  0  0  0  0
 11  7  2  0  0  0  0
 13 11  1  0  0  0  0
 15 13  1  0  0  0  0
 16  4  2  0  0  0  0
 16 15  1  0  0  0  0
 17 15  1  0  0  0  0
 18 16  1  0  0  0  0
 19 22  1  0  0  0  0
 19  1  1  0  0  0  0
 20 19  1  0  0  0  0
 21 19  1  0  0  0  0
 22 24  1  0  0  0  0
 23 22  1  0  0  0  0
M  END
>  <REMARK>
 VINA RESULT:      -4.7      2.464      4.592
 SMILES NCCc1c[nH]c2c(F)cccc12
 SMILES IDX 3 1 4 4 11 5 12 6 10 7 13 9 8 11 7 13 9 14 6 15 5 16 2 19
 SMILES IDX 1 22
 H PARENT 3 2 3 3 11 8 12 10 10 12 6 17 5 18 2 20 2 21 1 23 1 24
 Flexibility Score: inf

>  <TORSDO>
F 3

$$$$
