MODEL 1
REMARK VINA RESULT:      -4.5      0.000      0.000
REMARK SMILES NCCc1c[nH]c2c(F)cccc12
REMARK SMILES IDX 3 1 4 4 11 5 12 6 10 7 13 9 8 11 7 13 9 14 6 15 5 16 2 19
REMARK SMILES IDX 1 22
REMARK H PARENT 3 2 3 3 11 8 12 10 10 12 6 17 5 18 2 20 2 21 1 23 1 24
REMARK Flexibility Score: inf
ROOT
ATOM      1  C   UNL     1      -3.517   9.503 -17.526  1.00  0.00    -0.013 C 
ATOM      2  H   UNL     1      -3.526  10.381 -16.868  1.00  0.00     0.033 H 
ATOM      3  H   UNL     1      -4.309   9.678 -18.267  1.00  0.00     0.033 H 
ENDROOT
BRANCH   1   4
ATOM      4  C   UNL     1      -3.844   8.291 -16.710  1.00  0.00    -0.021 A 
ATOM      5  C   UNL     1      -6.222   8.775 -13.740  1.00  0.00    -0.059 A 
ATOM      6  C   UNL     1      -5.473   9.181 -14.854  1.00  0.00    -0.052 A 
ATOM      7  C   UNL     1      -6.214   7.445 -13.327  1.00  0.00    -0.024 A 
ATOM      8  H   UNL     1      -6.812   9.508 -13.195  1.00  0.00     0.062 H 
ATOM      9  C   UNL     1      -4.703   8.233 -15.564  1.00  0.00     0.006 A 
ATOM     10  H   UNL     1      -5.485  10.221 -15.164  1.00  0.00     0.063 H 
ATOM     11  C   UNL     1      -5.460   6.501 -14.017  1.00  0.00     0.147 A 
ATOM     12  H   UNL     1      -6.794   7.134 -12.464  1.00  0.00     0.065 H 
ATOM     13  C   UNL     1      -4.718   6.909 -15.124  1.00  0.00     0.082 A 
ATOM     14  F   UNL     1      -5.453   5.222 -13.617  1.00  0.00    -0.205 F 
ATOM     15  N   UNL     1      -3.902   6.189 -15.961  1.00  0.00    -0.359 N 
ATOM     16  C   UNL     1      -3.377   7.008 -16.924  1.00  0.00     0.005 A 
ATOM     17  H   UNL     1      -3.721   5.199 -15.867  1.00  0.00     0.166 HD
ATOM     18  H   UNL     1      -2.703   6.616 -17.673  1.00  0.00     0.082 H 
ENDBRANCH   1   4
BRANCH   1  19
ATOM     19  C   UNL     1      -2.151   9.433 -18.224  1.00  0.00    -0.004 C 
ATOM     20  H   UNL     1      -2.024   8.430 -18.646  1.00  0.00     0.043 H 
ATOM     21  H   UNL     1      -2.107  10.145 -19.057  1.00  0.00     0.043 H 
BRANCH  19  22
ATOM     22  N   UNL     1      -1.027   9.689 -17.320  1.00  0.00    -0.330 NA
ATOM     23  H   UNL     1      -0.551   8.816 -17.104  1.00  0.00     0.118 HD
ATOM     24  H   UNL     1      -0.347  10.288 -17.785  1.00  0.00     0.118 HD
ENDBRANCH  19  22
ENDBRANCH   1  19
TORSDOF 3
ENDMDL
MODEL 2
REMARK VINA RESULT:      -4.4      3.012      4.397
REMARK SMILES NCCc1c[nH]c2c(F)cccc12
REMARK SMILES IDX 3 1 4 4 11 5 12 6 10 7 13 9 8 11 7 13 9 14 6 15 5 16 2 19
REMARK SMILES IDX 1 22
REMARK H PARENT 3 2 3 3 11 8 12 10 10 12 6 17 5 18 2 20 2 21 1 23 1 24
REMARK Flexibility Score: inf
ROOT
ATOM      1  C   UNL     1      -5.203   6.003 -14.335  1.00  0.00    -0.013 C 
ATOM      2  H   UNL     1      -5.916   5.169 -14.357  1.00  0.00     0.033 H 
ATOM      3  H   UNL     1      -4.480   5.756 -13.547  1.00  0.00     0.033 H 
ENDROOT
BRANCH   1   4
ATOM      4  C   UNL     1      -5.943   7.253 -13.971  1.00  0.00    -0.021 A 
ATOM      5  C   UNL     1      -9.774   7.115 -14.101  1.00  0.00    -0.059 A 
ATOM      6  C   UNL     1      -8.474   6.605 -14.226  1.00  0.00    -0.052 A 
ATOM      7  C   UNL     1      -9.982   8.433 -13.703  1.00  0.00    -0.024 A 
ATOM      8  H   UNL     1     -10.625   6.474 -14.317  1.00  0.00     0.062 H 
ATOM      9  C   UNL     1      -7.365   7.434 -13.947  1.00  0.00     0.006 A 
ATOM     10  H   UNL     1      -8.324   5.576 -14.539  1.00  0.00     0.063 H 
ATOM     11  C   UNL     1      -8.899   9.262 -13.425  1.00  0.00     0.147 A 
ATOM     12  H   UNL     1     -10.989   8.827 -13.607  1.00  0.00     0.065 H 
ATOM     13  C   UNL     1      -7.608   8.749 -13.551  1.00  0.00     0.082 A 
ATOM     14  F   UNL     1      -9.102  10.530 -13.044  1.00  0.00    -0.205 F 
ATOM     15  N   UNL     1      -6.391   9.348 -13.344  1.00  0.00    -0.359 N 
ATOM     16  C   UNL     1      -5.382   8.456 -13.586  1.00  0.00     0.005 A 
ATOM     17  H   UNL     1      -6.271  10.311 -13.059  1.00  0.00     0.166 HD
ATOM     18  H   UNL     1      -4.347   8.753 -13.480  1.00  0.00     0.082 H 
ENDBRANCH   1   4
BRANCH   1  19
ATOM     19  C   UNL     1      -4.495   6.074 -15.695  1.00  0.00    -0.004 C 
ATOM     20  H   UNL     1      -4.389   5.057 -16.089  1.00  0.00     0.043 H 
ATOM     21  H   UNL     1      -5.098   6.641 -16.414  1.00  0.00     0.043 H 
BRANCH  19  22
ATOM     22  N   UNL     1      -3.158   6.669 -15.621  1.00  0.00    -0.330 NA
ATOM     23  H   UNL     1      -2.790   6.810 -16.559  1.00  0.00     0.118 HD
ATOM     24  H   UNL     1      -3.220   7.589 -15.187  1.00  0.00     0.118 HD
ENDBRANCH  19  22
ENDBRANCH   1  19
TORSDOF 3
ENDMDL
MODEL 3
REMARK VINA RESULT:      -4.4      3.164      4.401
REMARK SMILES NCCc1c[nH]c2c(F)cccc12
REMARK SMILES IDX 3 1 4 4 11 5 12 6 10 7 13 9 8 11 7 13 9 14 6 15 5 16 2 19
REMARK SMILES IDX 1 22
REMARK H PARENT 3 2 3 3 11 8 12 10 10 12 6 17 5 18 2 20 2 21 1 23 1 24
REMARK Flexibility Score: inf
ROOT
ATOM      1  C   UNL     1      -5.492   5.907 -14.121  1.00  0.00    -0.013 C 
ATOM      2  H   UNL     1      -5.992   4.932 -14.188  1.00  0.00     0.033 H 
ATOM      3  H   UNL     1      -4.898   5.874 -13.198  1.00  0.00     0.033 H 
ENDROOT
BRANCH   1   4
ATOM      4  C   UNL     1      -6.538   6.973 -14.014  1.00  0.00    -0.021 A 
ATOM      5  C   UNL     1      -5.318  10.566 -13.450  1.00  0.00    -0.059 A 
ATOM      6  C   UNL     1      -5.173   9.184 -13.641  1.00  0.00    -0.052 A 
ATOM      7  C   UNL     1      -6.583  11.148 -13.423  1.00  0.00    -0.024 A 
ATOM      8  H   UNL     1      -4.435  11.185 -13.322  1.00  0.00     0.062 H 
ATOM      9  C   UNL     1      -6.319   8.375 -13.806  1.00  0.00     0.006 A 
ATOM     10  H   UNL     1      -4.182   8.742 -13.659  1.00  0.00     0.063 H 
ATOM     11  C   UNL     1      -7.721  10.362 -13.584  1.00  0.00     0.147 A 
ATOM     12  H   UNL     1      -6.694  12.217 -13.274  1.00  0.00     0.065 H 
ATOM     13  C   UNL     1      -7.571   8.989 -13.773  1.00  0.00     0.082 A 
ATOM     14  F   UNL     1      -8.937  10.924 -13.556  1.00  0.00    -0.205 F 
ATOM     15  N   UNL     1      -8.515   8.008 -13.950  1.00  0.00    -0.359 N 
ATOM     16  C   UNL     1      -7.905   6.793 -14.104  1.00  0.00     0.005 A 
ATOM     17  H   UNL     1      -9.512   8.173 -13.959  1.00  0.00     0.166 HD
ATOM     18  H   UNL     1      -8.493   5.896 -14.249  1.00  0.00     0.082 H 
ENDBRANCH   1   4
BRANCH   1  19
ATOM     19  C   UNL     1      -4.567   6.063 -15.336  1.00  0.00    -0.004 C 
ATOM     20  H   UNL     1      -4.435   5.082 -15.805  1.00  0.00     0.043 H 
ATOM     21  H   UNL     1      -5.022   6.723 -16.084  1.00  0.00     0.043 H 
BRANCH  19  22
ATOM     22  N   UNL     1      -3.241   6.580 -14.991  1.00  0.00    -0.330 NA
ATOM     23  H   UNL     1      -3.330   7.360 -14.343  1.00  0.00     0.118 HD
ATOM     24  H   UNL     1      -2.709   5.856 -14.510  1.00  0.00     0.118 HD
ENDBRANCH  19  22
ENDBRANCH   1  19
TORSDOF 3
ENDMDL
