REMARK SMILES NCCc1c[nH]c2c(F)cccc12
REMARK SMILES IDX 3 1 4 4 11 5 12 6 10 7 13 9 8 11 7 13 9 14 6 15 5 16 2 19
REMARK SMILES IDX 1 22
REMARK H PARENT 3 2 3 3 11 8 12 10 10 12 6 17 5 18 2 20 2 21 1 23 1 24
REMARK Flexibility Score: inf
ROOT
ATOM      1  C   UNL     1      -0.893  -0.908  -0.687  1.00  0.00    -0.013 C 
ATOM      2  H   UNL     1       0.144  -1.049  -1.018  1.00  0.00     0.033 H 
ATOM      3  H   UNL     1      -1.517  -1.110  -1.567  1.00  0.00     0.033 H 
ENDROOT
BRANCH   1   4
ATOM      4  C   UNL     1      -1.067   0.516  -0.257  1.00  0.00    -0.021 A 
ATOM      5  C   UNL     1       1.904   2.184   1.504  1.00  0.00    -0.059 A 
ATOM      6  C   UNL     1       1.222   1.137   0.867  1.00  0.00    -0.052 A 
ATOM      7  C   UNL     1       1.289   3.419   1.692  1.00  0.00    -0.024 A 
ATOM      8  H   UNL     1       2.921   2.027   1.854  1.00  0.00     0.062 H 
ATOM      9  C   UNL     1      -0.100   1.336   0.412  1.00  0.00     0.006 A 
ATOM     10  H   UNL     1       1.712   0.178   0.728  1.00  0.00     0.063 H 
ATOM     11  C   UNL     1      -0.014   3.629   1.249  1.00  0.00     0.147 A 
ATOM     12  H   UNL     1       1.818   4.228   2.186  1.00  0.00     0.065 H 
ATOM     13  C   UNL     1      -0.687   2.585   0.616  1.00  0.00     0.082 A 
ATOM     14  F   UNL     1      -0.604   4.818   1.432  1.00  0.00    -0.205 F 
ATOM     15  N   UNL     1      -1.957   2.532   0.098  1.00  0.00    -0.359 N 
ATOM     16  C   UNL     1      -2.194   1.295  -0.437  1.00  0.00     0.005 A 
ATOM     17  H   UNL     1      -2.613   3.301   0.119  1.00  0.00     0.166 HD
ATOM     18  H   UNL     1      -3.150   1.064  -0.888  1.00  0.00     0.082 H 
ENDBRANCH   1   4
BRANCH   1  19
ATOM     19  C   UNL     1      -1.194  -1.932   0.417  1.00  0.00    -0.004 C 
ATOM     20  H   UNL     1      -0.815  -2.910   0.101  1.00  0.00     0.043 H 
ATOM     21  H   UNL     1      -0.672  -1.664   1.343  1.00  0.00     0.043 H 
BRANCH  19  22
ATOM     22  N   UNL     1      -2.624  -2.073   0.701  1.00  0.00    -0.330 NA
ATOM     23  H   UNL     1      -3.119  -2.353  -0.143  1.00  0.00     0.118 HD
ATOM     24  H   UNL     1      -2.763  -2.815   1.385  1.00  0.00     0.118 HD
ENDBRANCH  19  22
ENDBRANCH   1  19
TORSDOF 3
