
     RDKit          3D

 24 25  0  0  0  0  0  0  0  0999 V2000
    1.9040    2.1840    1.5041 C   0  0  0  0  0  0  0  0  0  0  0  0
    1.2218    1.1370    0.8673 C   0  0  0  0  0  0  0  0  0  0  0  0
   -0.1002    1.3364    0.4122 C   0  0  0  0  0  0  0  0  0  0  0  0
   -0.6874    2.5847    0.6164 C   0  0  0  0  0  0  0  0  0  0  0  0
   -0.0144    3.6293    1.2494 C   0  0  0  0  0  0  0  0  0  0  0  0
    1.2889    3.4192    1.6924 C   0  0  0  0  0  0  0  0  0  0  0  0
   -0.6040    4.8182    1.4318 F   0  0  0  0  0  0  0  0  0  0  0  0
   -1.9574    2.5319    0.0980 N   0  0  0  0  0  0  0  0  0  0  0  0
   -2.1943    1.2954   -0.4374 C   0  0  0  0  0  0  0  0  0  0  0  0
   -1.0665    0.5163   -0.2566 C   0  0  0  0  0  0  0  0  0  0  0  0
   -0.8926   -0.9081   -0.6871 C   0  0  0  0  0  0  0  0  0  0  0  0
   -1.1945   -1.9320    0.4174 C   0  0  0  0  0  0  0  0  0  0  0  0
   -2.6239   -2.0731    0.7013 N   0  0  0  0  0  0  0  0  0  0  0  0
    2.9215    2.0274    1.8539 H   0  0  0  0  0  0  0  0  0  0  0  0
    1.7115    0.1776    0.7275 H   0  0  0  0  0  0  0  0  0  0  0  0
    1.8180    4.2284    2.1861 H   0  0  0  0  0  0  0  0  0  0  0  0
   -2.6133    3.3010    0.1190 H   0  0  0  0  0  0  0  0  0  0  0  0
   -3.1501    1.0639   -0.8885 H   0  0  0  0  0  0  0  0  0  0  0  0
    0.1445   -1.0490   -1.0175 H   0  0  0  0  0  0  0  0  0  0  0  0
   -1.5171   -1.1098   -1.5670 H   0  0  0  0  0  0  0  0  0  0  0  0
   -0.8146   -2.9101    0.1007 H   0  0  0  0  0  0  0  0  0  0  0  0
   -0.6725   -1.6638    1.3426 H   0  0  0  0  0  0  0  0  0  0  0  0
   -3.1187   -2.3527   -0.1435 H   0  0  0  0  0  0  0  0  0  0  0  0
   -2.7629   -2.8153    1.3845 H   0  0  0  0  0  0  0  0  0  0  0  0
  1  2  2  0
  2  3  1  0
  3  4  2  0
  4  5  1  0
  5  6  2  0
  5  7  1  0
  4  8  1  0
  8  9  1  0
  9 10  2  0
 10 11  1  0
 11 12  1  0
 12 13  1  0
  6  1  1  0
 10  3  1  0
  1 14  1  0
  2 15  1  0
  6 16  1  0
  8 17  1  0
  9 18  1  0
 11 19  1  0
 11 20  1  0
 12 21  1  0
 12 22  1  0
 13 23  1  0
 13 24  1  0
M  END
